data_image0
_chemical_formula_structural       Ca2TiSiOSiTiO
_chemical_formula_sum              "Ca2 Ti2 Si2 O2"
_cell_length_a       4.065534115456506
_cell_length_b       4.061164019488449
_cell_length_c       8.086581230163574
_cell_angle_alpha    90.01376533534648
_cell_angle_beta     90.00099971218985
_cell_angle_gamma    90.00999507108403

_space_group_name_H-M_alt    "P 1"
_space_group_IT_number       1

loop_
  _space_group_symop_operation_xyz
  'x, y, z'

loop_
  _atom_site_type_symbol
  _atom_site_label
  _atom_site_symmetry_multiplicity
  _atom_site_fract_x
  _atom_site_fract_y
  _atom_site_fract_z
  _atom_site_occupancy
  Ca  Ca1       1.0  0.883449916461994  0.3912788517101387  0.6342911468862044  1.0000
  Ca  Ca2       1.0  0.38332655961398276  0.8912621661953051  0.934173115514837  1.0000
  Ti  Ti1       1.0  0.3833245116355161  0.39142383260403074  0.2843277669897833  1.0000
  Si  Si1       1.0  0.8833085387307829  0.39129998642592434  0.00451586623883358  1.0000
  O   O1        1.0  0.3832843537414758  0.8913995252731599  0.2168678211221638  1.0000
  Si  Si2       1.0  0.38343833116089027  0.8912775749913212  0.5639397791963956  1.0000
  Ti  Ti2       1.0  0.8832846538643903  0.891338735416026  0.2841391518552988  1.0000
  O   O2        1.0  0.8833355333681462  0.3913530712039075  0.3515825257781859  1.0000
