data_image0
_chemical_formula_structural       O2CaTiSiCaTiO3SiO5
_chemical_formula_sum              "O10 Ca2 Ti2 Si2"
_cell_length_a       5.5013549394238055
_cell_length_b       5.5014916948388395
_cell_length_c       7.1153974533081055
_cell_angle_alpha    104.10449951235645
_cell_angle_beta     104.17722887528289
_cell_angle_gamma    105.80054458815448

_space_group_name_H-M_alt    "P 1"
_space_group_IT_number       1

loop_
  _space_group_symop_operation_xyz
  'x, y, z'

loop_
  _atom_site_type_symbol
  _atom_site_label
  _atom_site_symmetry_multiplicity
  _atom_site_fract_x
  _atom_site_fract_y
  _atom_site_fract_z
  _atom_site_occupancy
  O   O1        1.0  0.7100498319475079  0.1697440488775582  0.18052224103204612  1.0000
  O   O2        1.0  0.3902075152248017  0.8607195724860844  0.33827577715298407  1.0000
  Ca  Ca1       1.0  0.13106660474261086  0.12044547704478048  0.3381874238851639  1.0000
  Ti  Ti1       1.0  0.4589123253302357  0.7924215535003168  0.0883742474919917  1.0000
  Si  Si1       1.0  0.1390026048099914  0.11238986972780389  0.8382468020578547  1.0000
  Ca  Ca2       1.0  0.7867391537905181  0.46463451691479035  0.8383621533370472  1.0000
  Ti  Ti2       1.0  0.45881711826941407  0.7925285927711738  0.5883243957424674  1.0000
  O   O3        1.0  0.5275217042696115  0.7242929810386413  0.8385020147920306  1.0000
  O   O4        1.0  0.14513105533410414  0.906006296924272  0.9724031049574957  1.0000
  O   O5        1.0  0.7725666155670633  0.6789113766659096  0.20436854472031443  1.0000
  Si  Si2       1.0  0.7787996839475511  0.4725319845887798  0.33851640912419406  1.0000
  O   O6        1.0  0.835951161718263  0.043906506182647735  0.6804193041116313  1.0000
  O   O7        1.0  0.08174673994120929  0.5409487832551482  0.4963591207976423  1.0000
  O   O8        1.0  0.5726950595297049  0.47887571533254064  0.4727490022789819  1.0000
  O   O9        1.0  0.34501626687264236  0.10608112844756697  0.7040362483345575  1.0000
  O   O10       1.0  0.20770188444051846  0.41513619524118833  0.9962078212915854  1.0000
