data_image0
_chemical_formula_structural       OSiCaSi
_chemical_formula_sum              "O1 Si2 Ca1"
_cell_length_a       3.8750808266214345
_cell_length_b       3.8798216497847386
_cell_length_c       6.342801570892334
_cell_angle_alpha    72.53343127769494
_cell_angle_beta     72.4821985007121
_cell_angle_gamma    60.067497579741946

_space_group_name_H-M_alt    "P 1"
_space_group_IT_number       1

loop_
  _space_group_symop_operation_xyz
  'x, y, z'

loop_
  _atom_site_type_symbol
  _atom_site_label
  _atom_site_symmetry_multiplicity
  _atom_site_fract_x
  _atom_site_fract_y
  _atom_site_fract_z
  _atom_site_occupancy
  O   O1        1.0  0.07067388308795329  0.07600524809564389  0.9352152225564402  1.0000
  Si  Si1       1.0  0.5452002673559742  0.549557926175149  0.5065184507127226  1.0000
  Ca  Ca1       1.0  0.7110936756456393  0.7160718653280156  0.01564000027804223  1.0000
  Si  Si2       1.0  0.16591324839739602  0.17019943154320596  0.6464518981110949  1.0000
