data_image0
_chemical_formula_structural       TiCaOSiOTiO6
_chemical_formula_sum              "Ti2 Ca1 O8 Si1"
_cell_length_a       5.751922016770585
_cell_length_b       5.762387861897142
_cell_length_c       5.76252317428589
_cell_angle_alpha    106.56390051596016
_cell_angle_beta     106.29036567606047
_cell_angle_gamma    115.66007334237884

_space_group_name_H-M_alt    "P 1"
_space_group_IT_number       1

loop_
  _space_group_symop_operation_xyz
  'x, y, z'

loop_
  _atom_site_type_symbol
  _atom_site_label
  _atom_site_symmetry_multiplicity
  _atom_site_fract_x
  _atom_site_fract_y
  _atom_site_fract_z
  _atom_site_occupancy
  Ti  Ti1       1.0  0.4800773016194257  0.24202205856179831  0.4832090859156116  1.0000
  Ca  Ca1       1.0  0.22871318267309987  0.5025204405678451  0.9964387571962074  1.0000
  O   O1        1.0  0.5709557953187608  0.6635579411951613  0.815218470121192  1.0000
  Si  Si1       1.0  0.7297038019309278  0.012182287106305709  0.005857464055623263  1.0000
  O   O2        1.0  0.19434761492932892  0.7928797860768697  0.32174528865536184  1.0000
  Ti  Ti2       1.0  0.9792504266163309  0.7585345962683352  0.5025767288425086  1.0000
  O   O3        1.0  0.5671239366073296  0.03975220603903923  0.19507797106869654  1.0000
  O   O4        1.0  0.6981091966081849  0.16148825764909322  0.8065994957496782  1.0000
  O   O5        1.0  0.927642370810815  0.5323055693568085  0.6746312229827672  1.0000
  O   O6        1.0  0.21066614208645082  0.15744539720668088  0.6692140169297309  1.0000
  O   O7        1.0  0.07866327751388344  0.16176738434705323  0.18670060049003165  1.0000
  O   O8        1.0  0.5809836598172913  0.5334866494124799  0.3275910731974496  1.0000
