data_image0
_chemical_formula_structural       OCaTi2O2SiO5
_chemical_formula_sum              "O8 Ca1 Ti2 Si1"
_cell_length_a       3.5390462713738957
_cell_length_b       6.337977373786095
_cell_length_c       6.33830165863037
_cell_angle_alpha    77.88965375394936
_cell_angle_beta     89.94877608364807
_cell_angle_gamma    89.96221789629061

_space_group_name_H-M_alt    "P 1"
_space_group_IT_number       1

loop_
  _space_group_symop_operation_xyz
  'x, y, z'

loop_
  _atom_site_type_symbol
  _atom_site_label
  _atom_site_symmetry_multiplicity
  _atom_site_fract_x
  _atom_site_fract_y
  _atom_site_fract_z
  _atom_site_occupancy
  O   O1        1.0  0.6719012917767422  0.9235090462960512  0.5057373707439927  1.0000
  Ca  Ca1       1.0  0.17186840912725362  0.7313666613080642  0.6978627807833712  1.0000
  Ti  Ti1       1.0  0.6718313910119796  0.2144465366494729  0.5787319829651277  1.0000
  Ti  Ti2       1.0  0.6719155297589718  0.8505136110172423  0.21485774137794428  1.0000
  O   O2        1.0  0.6717780140667335  0.3751329279596511  0.30952669270976074  1.0000
  O   O3        1.0  0.17180300941288534  0.12870394668605378  0.6673277156350214  1.0000
  Si  Si1       1.0  0.6718619453254241  0.4016144860941529  0.027745273191689457  1.0000
  O   O4        1.0  0.17191462892592554  0.761837207754632  0.30053836388724503  1.0000
  O   O5        1.0  0.6719378015811442  0.44336662392272147  0.7376851770951592  1.0000
  O   O6        1.0  0.6718810810931214  0.6917278593892807  0.9857667573028285  1.0000
  O   O7        1.0  0.6719034653262848  0.11983752013304465  0.054445815257407874  1.0000
  O   O8        1.0  0.17186980405216024  0.409246227532365  0.020155710611346852  1.0000
