data_image0
_chemical_formula_structural       SiCaO2
_chemical_formula_sum              "Si1 Ca1 O2"
_cell_length_a       3.478110896827185
_cell_length_b       3.493749943521477
_cell_length_c       5.141470432281493
_cell_angle_alpha    89.88336336438569
_cell_angle_beta     89.98581620094896
_cell_angle_gamma    119.53601592105618

_space_group_name_H-M_alt    "P 1"
_space_group_IT_number       1

loop_
  _space_group_symop_operation_xyz
  'x, y, z'

loop_
  _atom_site_type_symbol
  _atom_site_label
  _atom_site_symmetry_multiplicity
  _atom_site_fract_x
  _atom_site_fract_y
  _atom_site_fract_z
  _atom_site_occupancy
  Si  Si1       1.0  0.24859760765174288  0.6520516720502231  0.5221806039700158  1.0000
  Ca  Ca1       1.0  0.8822273807006452  0.9223818631477316  0.9952819865760445  1.0000
  O   O1        1.0  0.8328690331530203  0.8243960894648434  0.5012062683835596  1.0000
  O   O2        1.0  0.2112196440034216  0.5775560846839216  0.19357867618071822  1.0000
