data_image0
_chemical_formula_structural       CaSiO2TiCaO2TiO3SiO2
_chemical_formula_sum              "Ca2 Si2 O9 Ti2"
_cell_length_a       5.857274411706971
_cell_length_b       5.851415052560851
_cell_length_c       6.777471065521241
_cell_angle_alpha    89.96913688110831
_cell_angle_beta     89.98001736929687
_cell_angle_gamma    120.00201163683062

_space_group_name_H-M_alt    "P 1"
_space_group_IT_number       1

loop_
  _space_group_symop_operation_xyz
  'x, y, z'

loop_
  _atom_site_type_symbol
  _atom_site_label
  _atom_site_symmetry_multiplicity
  _atom_site_fract_x
  _atom_site_fract_y
  _atom_site_fract_z
  _atom_site_occupancy
  Ca  Ca1       1.0  0.7515763790384457  0.5764479311613719  0.9453331749100107  1.0000
  Si  Si1       1.0  0.4181228351592156  0.910497552933188  0.10643383271287286  1.0000
  O   O1        1.0  0.8958387024516975  0.4308756387675773  0.6202958422535679  1.0000
  O   O2        1.0  0.2730046953178428  0.05636967071391137  0.9857358759578932  1.0000
  Ti  Ti1       1.0  0.08448100760097987  0.24368908388391014  0.563520661798802  1.0000
  Ca  Ca2       1.0  0.4179130128003124  0.9105986306963263  0.6604064689251541  1.0000
  O   O3        1.0  0.08462604024030503  0.24406412432327146  0.3033055348460296  1.0000
  O   O4        1.0  0.41793161516742855  0.9102888584844353  0.3409026248264894  1.0000
  Ti  Ti2       1.0  0.08460181124520473  0.24357512450275656  0.04318367339978614  1.0000
  O   O5        1.0  0.7090817052950495  0.056338596057246726  0.9857990255465222  1.0000
  O   O6        1.0  0.4600734906436577  0.4312029682425389  0.6202181794128618  1.0000
  O   O7        1.0  0.7511366926901457  0.5770837537414104  0.2649632071403005  1.0000
  Si  Si2       1.0  0.7508866816019114  0.5767733206090635  0.499436113252826  1.0000
  O   O8        1.0  0.2724686889471425  0.6196316666097514  0.9856137610234544  1.0000
  O   O9        1.0  0.8963854254539871  0.8675734250734991  0.6203307375917283  1.0000
