data_image0
_chemical_formula_structural       CaTiSiTiO2
_chemical_formula_sum              "Ca1 Ti2 Si1 O2"
_cell_length_a       3.842516756919639
_cell_length_b       3.8533179792493315
_cell_length_c       6.296482563018799
_cell_angle_alpha    90.28218494280016
_cell_angle_beta     90.21776259756467
_cell_angle_gamma    90.09841869479165

_space_group_name_H-M_alt    "P 1"
_space_group_IT_number       1

loop_
  _space_group_symop_operation_xyz
  'x, y, z'

loop_
  _atom_site_type_symbol
  _atom_site_label
  _atom_site_symmetry_multiplicity
  _atom_site_fract_x
  _atom_site_fract_y
  _atom_site_fract_z
  _atom_site_occupancy
  Ca  Ca1       1.0  0.49084326601545336  0.015887320396094987  0.08878669645282479  1.0000
  Ti  Ti1       1.0  0.4924028568150701  0.5177610629073609  0.5952196783969871  1.0000
  Si  Si1       1.0  0.9915529307090932  0.5168047761745799  0.2857405132468848  1.0000
  Ti  Ti2       1.0  0.9923065807874168  0.01784083837839245  0.5944556603448485  1.0000
  O   O1        1.0  0.49311254902584173  0.018766537635703004  0.7210826403788678  1.0000
  O   O2        1.0  0.9933578161348954  0.5190949634162355  0.7337234204148361  1.0000
