data_image0
_chemical_formula_structural       SiCa2Si2OCaOSiO6TiO4
_chemical_formula_sum              "Si4 Ca3 O12 Ti1"
_cell_length_a       5.839343731683668
_cell_length_b       7.264123391220824
_cell_length_c       7.86598014831543
_cell_angle_alpha    81.35579726995218
_cell_angle_beta     62.13775604720916
_cell_angle_gamma    72.72066863151738

_space_group_name_H-M_alt    "P 1"
_space_group_IT_number       1

loop_
  _space_group_symop_operation_xyz
  'x, y, z'

loop_
  _atom_site_type_symbol
  _atom_site_label
  _atom_site_symmetry_multiplicity
  _atom_site_fract_x
  _atom_site_fract_y
  _atom_site_fract_z
  _atom_site_occupancy
  Si  Si1       1.0  0.2068545493128798  0.8453764568584374  0.6596717777727817  1.0000
  Ca  Ca1       1.0  0.3786848781950466  0.7788541083553123  0.07510071306515054  1.0000
  Ca  Ca2       1.0  0.7259080849038495  0.4317182415318065  0.7276028810009946  1.0000
  Si  Si2       1.0  0.8286297907403064  0.022897295092885107  0.06831664314977083  1.0000
  Si  Si3       1.0  0.41344259982040366  0.4361761676385962  0.48373453326559185  1.0000
  O   O1        1.0  0.9998938548362004  0.9435872069632647  0.5600287026925201  1.0000
  Ca  Ca3       1.0  0.9522189502436861  0.5033125199765189  0.003706959582493674  1.0000
  O   O2        1.0  0.6349235377536626  0.25128680300029493  0.5322447527216552  1.0000
  Si  Si4       1.0  0.7496723206606186  0.012756502649425534  0.4917348819064116  1.0000
  O   O3        1.0  0.9134156608707792  0.9744091166685045  0.2532422016510285  1.0000
  O   O4        1.0  0.17636090322739356  0.35388240682072947  0.49680771763815323  1.0000
  O   O5        1.0  0.4814115536542919  0.9281323304577955  0.5751711196477148  1.0000
  O   O6        1.0  0.07923432932840518  0.8719753118584337  0.8980356458073709  1.0000
  O   O7        1.0  0.7620185087503711  0.6741719914192169  0.8329693966867042  1.0000
  O   O8        1.0  0.5418146282208884  0.5239465851788195  0.2673618880269709  1.0000
  Ti  Ti1       1.0  0.3853196895006323  0.30991361501243675  0.19623942234892083  1.0000
  O   O9        1.0  0.5227004906576053  0.009176312573334858  0.15097191737057475  1.0000
  O   O10       1.0  0.8270636375565642  0.2399317562950803  0.9811985571062583  1.0000
  O   O11       1.0  0.3420107551742036  0.6061268323836586  0.635349957858558  1.0000
  O   O12       1.0  0.31955579318196914  0.4851324913116176  0.021482689207047444  1.0000
