data_image0
_chemical_formula_structural       Si3OCaO3TiO2CaO3
_chemical_formula_sum              "Si3 O9 Ca2 Ti1"
_cell_length_a       5.273445325655958
_cell_length_b       5.498929362565591
_cell_length_c       8.317889213562012
_cell_angle_alpha    74.39118805297635
_cell_angle_beta     96.04896156170766
_cell_angle_gamma    73.4329878473347

_space_group_name_H-M_alt    "P 1"
_space_group_IT_number       1

loop_
  _space_group_symop_operation_xyz
  'x, y, z'

loop_
  _atom_site_type_symbol
  _atom_site_label
  _atom_site_symmetry_multiplicity
  _atom_site_fract_x
  _atom_site_fract_y
  _atom_site_fract_z
  _atom_site_occupancy
  Si  Si1       1.0  0.3262085498754831  0.7095864785939194  0.9277824984434359  1.0000
  Si  Si2       1.0  0.7737181500285978  0.9875660760651072  0.023263708677528385  1.0000
  Si  Si3       1.0  0.32200109181115666  0.28313895669281813  0.2591263802865349  1.0000
  O   O1        1.0  0.8864673101780003  0.5838814016752769  0.5481447309088151  1.0000
  Ca  Ca1       1.0  0.8674458268763856  0.4660154718385549  0.8233229101384503  1.0000
  O   O2        1.0  0.4761975384868392  0.9660118561494256  0.2927097365814859  1.0000
  O   O3        1.0  0.38409418817095925  0.6541322806829344  0.7517182466310395  1.0000
  O   O4        1.0  0.6160975539220781  0.7295222669248108  0.016659088124683506  1.0000
  Ti  Ti1       1.0  0.7599988260612618  0.5967591037028963  0.3400210191116534  1.0000
  O   O5        1.0  0.957484275207783  0.8053598830929272  0.2163751045812666  1.0000
  O   O6        1.0  0.4845112645979744  0.4315465917044755  0.3589699460141748  1.0000
  Ca  Ca2       1.0  0.2016487787528941  0.8032282933994837  0.4671482674032265  1.0000
  O   O7        1.0  0.0426298455312338  0.2798047538761623  0.33067531290961094  1.0000
  O   O8        1.0  0.25055778288538205  0.4516841737198223  0.049069605609361536  1.0000
  O   O9        1.0  0.04594295981349113  0.9612347881880073  0.9000100246401888  1.0000
