data_image0
_chemical_formula_structural       OCa2TiSiO5
_chemical_formula_sum              "O6 Ca2 Ti1 Si1"
_cell_length_a       5.258330903232355
_cell_length_b       5.261725475981434
_cell_length_c       5.28494119644165
_cell_angle_alpha    119.80287032527161
_cell_angle_beta     119.82543865920245
_cell_angle_gamma    90.12254337780622

_space_group_name_H-M_alt    "P 1"
_space_group_IT_number       1

loop_
  _space_group_symop_operation_xyz
  'x, y, z'

loop_
  _atom_site_type_symbol
  _atom_site_label
  _atom_site_symmetry_multiplicity
  _atom_site_fract_x
  _atom_site_fract_y
  _atom_site_fract_z
  _atom_site_occupancy
  O   O1        1.0  0.3780862379955789  0.7666568689645586  0.03483683988461249  1.0000
  Ca  Ca1       1.0  0.3510842280441145  0.7168092142180221  0.53518812136525  1.0000
  Ca  Ca2       1.0  0.8507890801697983  0.21726766833771477  0.5350728850710343  1.0000
  Ti  Ti1       1.0  0.6008605696111567  0.466984091870156  0.03516739058250962  1.0000
  Si  Si1       1.0  0.10109324639947405  0.967057803598248  0.0352511099151177  1.0000
  O   O2        1.0  0.34069455314311264  0.20649687836378403  0.5142528002797518  1.0000
  O   O3        1.0  0.8610674094989589  0.7275767302930827  0.5559258758673363  1.0000
  O   O4        1.0  0.900808725361656  0.6898042394181568  0.034980830258324234  1.0000
  O   O5        1.0  0.3010986315431378  0.24440974610197846  0.03525002184817694  1.0000
  O   O6        1.0  0.823701205913918  0.16721300224668326  0.035465953031691345  1.0000
