data_image0
_chemical_formula_structural       OCa2SiTi
_chemical_formula_sum              "O1 Ca2 Si1 Ti1"
_cell_length_a       4.072901873010872
_cell_length_b       4.775298606505427
_cell_length_c       4.777703285217285
_cell_angle_alpha    90.00390254254489
_cell_angle_beta     89.98459359677089
_cell_angle_gamma    90.00776159973734

_space_group_name_H-M_alt    "P 1"
_space_group_IT_number       1

loop_
  _space_group_symop_operation_xyz
  'x, y, z'

loop_
  _atom_site_type_symbol
  _atom_site_label
  _atom_site_symmetry_multiplicity
  _atom_site_fract_x
  _atom_site_fract_y
  _atom_site_fract_z
  _atom_site_occupancy
  O   O1        1.0  0.8969448208808899  0.11689544469118117  0.6507304906845093  1.0000
  Ca  Ca1       1.0  0.8969456553459167  0.11679706722497941  0.15094982087612152  1.0000
  Ca  Ca2       1.0  0.8968963027000427  0.6168991923332214  0.6509388685226443  1.0000
  Si  Si1       1.0  0.397006630897522  0.6169068813323975  0.15126439929008484  1.0000
  Ti  Ti1       1.0  0.397218257188797  0.11700375378131865  0.6507829427719116  1.0000
