data_image0
_chemical_formula_structural       OSiOSiCaOTiO5
_chemical_formula_sum              "O8 Si2 Ca1 Ti1"
_cell_length_a       5.644083401690798
_cell_length_b       5.643091209738243
_cell_length_c       5.653398036956786
_cell_angle_alpha    106.43668153824426
_cell_angle_beta     106.47275212040756
_cell_angle_gamma    115.5794104916408

_space_group_name_H-M_alt    "P 1"
_space_group_IT_number       1

loop_
  _space_group_symop_operation_xyz
  'x, y, z'

loop_
  _atom_site_type_symbol
  _atom_site_label
  _atom_site_symmetry_multiplicity
  _atom_site_fract_x
  _atom_site_fract_y
  _atom_site_fract_z
  _atom_site_occupancy
  O   O1        1.0  0.32121991796071653  0.7913691225680675  0.6186923442435333  1.0000
  Si  Si1       1.0  0.005865440617045525  0.6907767249757997  0.37705699590131164  1.0000
  O   O2        1.0  0.8498902823904596  0.2555354092439593  0.6252299470530833  1.0000
  Si  Si2       1.0  0.20930507169106366  0.4202765524836664  0.8138917149932178  1.0000
  Ca  Ca1       1.0  0.7783628421583267  0.9412108026972101  0.8982201877540142  1.0000
  O   O3        1.0  0.3786210732202977  0.7846509660342423  0.0139300310166495  1.0000
  Ti  Ti1       1.0  0.510590130680951  0.25795400798335766  0.33839255643625943  1.0000
  O   O4        1.0  0.09713369396809736  0.9024214557566383  0.23289114443727724  1.0000
  O   O5        1.0  0.7865546949970003  0.6935174956715432  0.5126697545419344  1.0000
  O   O6        1.0  0.40953722920291313  0.39550144888746186  0.655200762214741  1.0000
  O   O7        1.0  0.2666405089945941  0.29006741959960736  0.040195452709025095  1.0000
  O   O8        1.0  0.7921878628342249  0.3340277461958237  0.17060503453057468  1.0000
