data_image0
_chemical_formula_structural       OCaOSiO2TiOSiO3
_chemical_formula_sum              "O8 Ca1 Si2 Ti1"
_cell_length_a       5.651431879317273
_cell_length_b       5.651664226237616
_cell_length_c       5.654397964477539
_cell_angle_alpha    106.59616632868472
_cell_angle_beta     106.44706299408465
_cell_angle_gamma    115.51456215815531

_space_group_name_H-M_alt    "P 1"
_space_group_IT_number       1

loop_
  _space_group_symop_operation_xyz
  'x, y, z'

loop_
  _atom_site_type_symbol
  _atom_site_label
  _atom_site_symmetry_multiplicity
  _atom_site_fract_x
  _atom_site_fract_y
  _atom_site_fract_z
  _atom_site_occupancy
  O   O1        1.0  0.2954722579166735  0.6839038844620328  0.11788183456993705  1.0000
  Ca  Ca1       1.0  0.13764927981776284  0.28567009069084714  0.234193741590529  1.0000
  O   O2        1.0  0.28895931524388285  0.7442411212288027  0.5127155072795053  1.0000
  Si  Si1       1.0  0.3890010942737293  0.05891199422544479  0.755813100122926  1.0000
  O   O3        1.0  0.38541250329308063  0.2779643780513143  0.6205480584285115  1.0000
  O   O4        1.0  0.8225021064952133  0.2127769322963352  0.5064508141504965  1.0000
  Ti  Ti1       1.0  0.8201948532035785  0.5530690465319794  0.7925490872845632  1.0000
  O   O5        1.0  0.683833318082191  0.6532653135289246  0.47712634010870747  1.0000
  Si  Si2       1.0  0.659434274100004  0.8534357976463228  0.3186529131720838  1.0000
  O   O6        1.0  0.7454722163529107  0.27267143051157233  0.9618730167085401  1.0000
  O   O7        1.0  0.17817305124068347  0.9668360914209474  0.9003038559903621  1.0000
  O   O8        1.0  0.7905861086344941  0.7978372267187418  0.09283590279008687  1.0000
