data_image0
_chemical_formula_structural       OCaSiTiSiO3CaO3
_chemical_formula_sum              "O7 Ca2 Si2 Ti1"
_cell_length_a       5.309394599177717
_cell_length_b       5.31489040712068
_cell_length_c       9.43770980834961
_cell_angle_alpha    73.76634966235227
_cell_angle_beta     73.71395421492973
_cell_angle_gamma    59.94037248127728

_space_group_name_H-M_alt    "P 1"
_space_group_IT_number       1

loop_
  _space_group_symop_operation_xyz
  'x, y, z'

loop_
  _atom_site_type_symbol
  _atom_site_label
  _atom_site_symmetry_multiplicity
  _atom_site_fract_x
  _atom_site_fract_y
  _atom_site_fract_z
  _atom_site_occupancy
  O   O1        1.0  0.2518312519275084  0.32812666177203753  0.9016596692651547  1.0000
  Ca  Ca1       1.0  0.5720164726635542  0.29904443516670637  0.05863470727210602  1.0000
  Si  Si1       1.0  0.843826578817363  0.5705068067779047  0.2441622097842294  1.0000
  Ti  Ti1       1.0  0.9849395482865759  0.7121766104245689  0.818582216843069  1.0000
  Si  Si2       1.0  0.3214530256340367  0.0487572643380539  0.8088978195638356  1.0000
  O   O2        1.0  0.5557038333214123  0.5462346068783978  0.2484151964082163  1.0000
  O   O3        1.0  0.6007217222570834  0.7465411298741221  0.901596961856875  1.0000
  O   O4        1.0  0.049298103233459706  0.7757668096666134  0.6256124466293059  1.0000
  Ca  Ca2       1.0  0.13072650175294703  0.8586787150310908  0.3816768731275991  1.0000
  O   O5        1.0  0.8197304155939208  0.8785729734742126  0.24786010081041865  1.0000
  O   O6        1.0  0.1521705531969354  0.28227011034291605  0.2485753709111024  1.0000
  O   O7        1.0  0.018990061346976443  0.9796950644013716  0.9012633992060035  1.0000
