data_image0
_chemical_formula_structural       SiTiO3CaO4SiCaO3Ti
_chemical_formula_sum              "Si2 Ti2 O10 Ca2"
_cell_length_a       5.512386220738854
_cell_length_b       5.50635869547965
_cell_length_c       7.119718551635742
_cell_angle_alpha    104.14201846063368
_cell_angle_beta     104.2119258148671
_cell_angle_gamma    105.70481354655168

_space_group_name_H-M_alt    "P 1"
_space_group_IT_number       1

loop_
  _space_group_symop_operation_xyz
  'x, y, z'

loop_
  _atom_site_type_symbol
  _atom_site_label
  _atom_site_symmetry_multiplicity
  _atom_site_fract_x
  _atom_site_fract_y
  _atom_site_fract_z
  _atom_site_occupancy
  Si  Si1       1.0  0.8841131470334372  0.3367526476263868  0.0473989674453771  1.0000
  Ti  Ti1       1.0  0.20375277553459306  0.017113440028186645  0.7975568547094044  1.0000
  O   O1        1.0  0.581170991526075  0.26806447343026113  0.8898112481449991  1.0000
  O   O2        1.0  0.45451358105223216  0.39447041983981257  0.38987364178022976  1.0000
  O   O3        1.0  0.5167947170413498  0.9039057584276243  0.4136909986900154  1.0000
  Ca  Ca1       1.0  0.5321056979364936  0.6888347480140938  0.047456505091220104  1.0000
  O   O4        1.0  0.09034027048972934  0.33043748372931253  0.913620597440693  1.0000
  O   O5        1.0  0.31720203731412505  0.7038595143651002  0.6814353211367336  1.0000
  O   O6        1.0  0.27242576343535246  0.9482328004369667  0.04750271134154115  1.0000
  O   O7        1.0  0.8263405756278158  0.7662577211276774  0.7050091481173226  1.0000
  Si  Si2       1.0  0.5233075701432311  0.6974243972129204  0.5475688491683749  1.0000
  Ca  Ca2       1.0  0.875367936845118  0.34548701329894865  0.5476370980102594  1.0000
  O   O8        1.0  0.9528583649521758  0.6396046359618873  0.20528518945713656  1.0000
  O   O9        1.0  0.8905308331455107  0.1301846916465721  0.18118487233343794  1.0000
  O   O10       1.0  0.1348784961458314  0.08594651513695976  0.5474688176923095  1.0000
  Ti  Ti2       1.0  0.2036442534859013  0.017071248340173116  0.2975588410293255  1.0000
