data_image0
_chemical_formula_structural       TiSiO2
_chemical_formula_sum              "Ti1 Si1 O2"
_cell_length_a       2.8279461570059135
_cell_length_b       2.8338945949019734
_cell_length_c       7.237778663635255
_cell_angle_alpha    79.36274115761817
_cell_angle_beta     79.33889678689197
_cell_angle_gamma    60.415483321971315

_space_group_name_H-M_alt    "P 1"
_space_group_IT_number       1

loop_
  _space_group_symop_operation_xyz
  'x, y, z'

loop_
  _atom_site_type_symbol
  _atom_site_label
  _atom_site_symmetry_multiplicity
  _atom_site_fract_x
  _atom_site_fract_y
  _atom_site_fract_z
  _atom_site_occupancy
  Ti  Ti1       1.0  0.972679272815974  0.614724356379972  0.9350393097688083  1.0000
  Si  Si1       1.0  0.49875535471381305  0.14247504256631613  0.3690763890720098  1.0000
  O   O1        1.0  0.35341919388124554  0.9963578210109615  0.7881775656428334  1.0000
  O   O2        1.0  0.5806669684517564  0.2225734659490871  0.11647933718853584  1.0000
