data_image0
_chemical_formula_structural       Si2OTiOCaO5
_chemical_formula_sum              "Si2 O7 Ti1 Ca1"
_cell_length_a       4.641806748191683
_cell_length_b       5.398596824171556
_cell_length_c       5.400087356567383
_cell_angle_alpha    102.66159515726628
_cell_angle_beta     96.8791032189517
_cell_angle_gamma    96.93143604934525

_space_group_name_H-M_alt    "P 1"
_space_group_IT_number       1

loop_
  _space_group_symop_operation_xyz
  'x, y, z'

loop_
  _atom_site_type_symbol
  _atom_site_label
  _atom_site_symmetry_multiplicity
  _atom_site_fract_x
  _atom_site_fract_y
  _atom_site_fract_z
  _atom_site_occupancy
  Si  Si1       1.0  0.03199532735401741  0.17391226646774108  0.18706636228554993  1.0000
  Si  Si2       1.0  0.8726532740104196  0.600784607009322  0.6134124206337702  1.0000
  O   O1        1.0  0.24814661284621503  0.24728544278040485  0.9855005417954952  1.0000
  Ti  Ti1       1.0  0.45245967899085804  0.06223803883269412  0.7255835404740829  1.0000
  O   O2        1.0  0.7264198958895643  0.0014152754663611443  0.0338049343347902  1.0000
  Ca  Ca1       1.0  0.4513976235915546  0.6668098829389522  0.12159091898423637  1.0000
  O   O3        1.0  0.9524354628452738  0.4588458949916391  0.3286751978881312  1.0000
  O   O4        1.0  0.65718539024257  0.8026775588630698  0.540073647538218  1.0000
  O   O5        1.0  0.17843560648961695  0.7536042620711065  0.7857462526144307  1.0000
  O   O6        1.0  0.6903467843295025  0.38790882878344285  0.7374941855240604  1.0000
  O   O7        1.0  0.21449605879154007  0.0500211064434846  0.3997777604610024  1.0000
