data_image0
_chemical_formula_structural       CaSiTiO3SiO4
_chemical_formula_sum              "Ca1 Si2 Ti1 O7"
_cell_length_a       4.643109097076955
_cell_length_b       5.40230180618659
_cell_length_c       5.396091461181641
_cell_angle_alpha    102.66355520485598
_cell_angle_beta     96.79689492934166
_cell_angle_gamma    96.88020324388744

_space_group_name_H-M_alt    "P 1"
_space_group_IT_number       1

loop_
  _space_group_symop_operation_xyz
  'x, y, z'

loop_
  _atom_site_type_symbol
  _atom_site_label
  _atom_site_symmetry_multiplicity
  _atom_site_fract_x
  _atom_site_fract_y
  _atom_site_fract_z
  _atom_site_occupancy
  Ca  Ca1       1.0  0.6976740977180688  0.31034757240628064  0.44478500781122493  1.0000
  Si  Si1       1.0  0.2778698189102471  0.8179118745717223  0.5101845073471454  1.0000
  Ti  Ti1       1.0  0.6987274238083976  0.7064231886342538  0.0485795376401191  1.0000
  O   O1        1.0  0.9722797734403383  0.6459064196246732  0.35789054150041866  1.0000
  O   O2        1.0  0.493829566406366  0.8910574991078434  0.3081122128664131  1.0000
  O   O3        1.0  0.4604705650734804  0.6943922373794266  0.7231548663000666  1.0000
  Si  Si2       1.0  0.11923379163221996  0.2448217576975072  0.9368303666857118  1.0000
  O   O4        1.0  0.9367262799082312  0.031429150654221756  0.06021173497700977  1.0000
  O   O5        1.0  0.4243307122542057  0.39748739854082865  0.10932165282845759  1.0000
  O   O6        1.0  0.19921795567144243  0.10336761243692504  0.6515934401850253  1.0000
  O   O7        1.0  0.9031665682817936  0.4462674699021509  0.8637568111152922  1.0000
