data_image0
_chemical_formula_structural       Ca2TiSiO6
_chemical_formula_sum              "Ca2 Ti1 Si1 O6"
_cell_length_a       5.268503090338399
_cell_length_b       5.2689857393885555
_cell_length_c       5.292697429656982
_cell_angle_alpha    119.87718248876845
_cell_angle_beta     119.889301031888
_cell_angle_gamma    89.99506479333326

_space_group_name_H-M_alt    "P 1"
_space_group_IT_number       1

loop_
  _space_group_symop_operation_xyz
  'x, y, z'

loop_
  _atom_site_type_symbol
  _atom_site_label
  _atom_site_symmetry_multiplicity
  _atom_site_fract_x
  _atom_site_fract_y
  _atom_site_fract_z
  _atom_site_occupancy
  Ca  Ca1       1.0  0.40688801689009146  0.7468576763441612  0.11504299641738285  1.0000
  Ca  Ca2       1.0  0.907180429086822  0.24666445567124237  0.11532216490245821  1.0000
  Ti  Ti1       1.0  0.15708935441199487  0.9967522307596959  0.6150617814007133  1.0000
  Si  Si1       1.0  0.6570531726714413  0.49683257332912195  0.6152089897248151  1.0000
  O   O1        1.0  0.41763539993006393  0.25807691277080225  0.13615339962726028  1.0000
  O   O2        1.0  0.3807076926208726  0.6978596783059574  0.615911248340914  1.0000
  O   O3        1.0  0.8581373249278765  0.7738803003677672  0.6158292621299063  1.0000
  O   O4        1.0  0.9335065584957907  0.2958024951755677  0.6144021464659101  1.0000
  O   O5        1.0  0.4559360845234035  0.21957622507660599  0.6142787455479576  1.0000
  O   O6        1.0  0.8965155719244505  0.7354652978906155  0.09405542390883953  1.0000
