data_image0
_chemical_formula_structural       CaTiSi
_chemical_formula_sum              "Ca1 Ti1 Si1"
_cell_length_a       4.250106071818107
_cell_length_b       4.253443774050867
_cell_length_c       4.530351638793945
_cell_angle_alpha    90.00930522206696
_cell_angle_beta     89.91226871443064
_cell_angle_gamma    119.93200435062599

_space_group_name_H-M_alt    "P 1"
_space_group_IT_number       1

loop_
  _space_group_symop_operation_xyz
  'x, y, z'

loop_
  _atom_site_type_symbol
  _atom_site_label
  _atom_site_symmetry_multiplicity
  _atom_site_fract_x
  _atom_site_fract_y
  _atom_site_fract_z
  _atom_site_occupancy
  Ca  Ca1       1.0  0.7579361581212927  0.8842719139551781  0.7950926495573142  1.0000
  Ti  Ti1       1.0  0.09121257307597601  0.5506760564857641  0.30343661060747384  1.0000
  Si  Si1       1.0  0.4246393390787711  0.21708184236668246  0.24565785069173252  1.0000
