data_image0
_chemical_formula_structural       CaOCaO2SiOTiO3CaSiCa
_chemical_formula_sum              "Ca4 O7 Si2 Ti1"
_cell_length_a       6.123599031413134
_cell_length_b       6.7272425632295745
_cell_length_c       6.704092502593994
_cell_angle_alpha    119.50069150918945
_cell_angle_beta     87.90913814744692
_cell_angle_gamma    116.89166574547322

_space_group_name_H-M_alt    "P 1"
_space_group_IT_number       1

loop_
  _space_group_symop_operation_xyz
  'x, y, z'

loop_
  _atom_site_type_symbol
  _atom_site_label
  _atom_site_symmetry_multiplicity
  _atom_site_fract_x
  _atom_site_fract_y
  _atom_site_fract_z
  _atom_site_occupancy
  Ca  Ca1       1.0  0.7099859477691747  0.4532941428995852  0.7634818513795317  1.0000
  O   O1        1.0  0.20535051347354624  0.7053156436670024  0.40280976834914967  1.0000
  Ca  Ca2       1.0  0.559628682615728  0.8261878403622507  0.6494328484411332  1.0000
  O   O2        1.0  0.39201596319429566  0.3749646138119728  0.49925839545162265  1.0000
  O   O3        1.0  0.7301704191675433  0.9454996219478962  0.015826679016809102  1.0000
  Si  Si1       1.0  0.09511780899218573  0.8601281797107315  0.6226992247494689  1.0000
  O   O4        1.0  0.06950779290418674  0.4615451612303359  0.8926080551636495  1.0000
  Ti  Ti1       1.0  0.10409225194289749  0.25223123144862636  0.6010698193438324  1.0000
  O   O5        1.0  0.2896181497716691  0.981271437022291  0.8761908881703874  1.0000
  O   O6        1.0  0.7114966810416528  0.0873590650969002  0.46419052447663  1.0000
  O   O7        1.0  0.5814450860850842  0.5837576416687997  0.12457276524507332  1.0000
  Ca  Ca3       1.0  0.3333901045591732  0.9057021388409651  0.17130020111517133  1.0000
  Si  Si2       1.0  0.7900161835804657  0.8912919903057851  0.22072615174039187  1.0000
  Ca  Ca4       1.0  0.17538264255714828  0.3188200340435114  0.1156530483947559  1.0000
