data_image0
_chemical_formula_structural       CaTiSi2O2
_chemical_formula_sum              "Ca1 Ti1 Si2 O2"
_cell_length_a       3.6931999653815564
_cell_length_b       3.693354563761487
_cell_length_c       8.23537540435791
_cell_angle_alpha    77.01684457302204
_cell_angle_beta     76.98339754687795
_cell_angle_gamma    59.990624957130585

_space_group_name_H-M_alt    "P 1"
_space_group_IT_number       1

loop_
  _space_group_symop_operation_xyz
  'x, y, z'

loop_
  _atom_site_type_symbol
  _atom_site_label
  _atom_site_symmetry_multiplicity
  _atom_site_fract_x
  _atom_site_fract_y
  _atom_site_fract_z
  _atom_site_occupancy
  Ca  Ca1       1.0  0.07521747356838057  0.44473254376488336  0.3453205422062018  1.0000
  Ti  Ti1       1.0  0.6232662772051479  0.9926214216284824  0.7012407447728629  1.0000
  Si  Si1       1.0  0.21184194709244536  0.5809732558705138  0.9368393944105949  1.0000
  Si  Si2       1.0  0.5035944402106162  0.8729967575128449  0.06079865614732317  1.0000
  O   O1        1.0  0.7035713321651542  0.0731918696706477  0.4598641112452252  1.0000
  O   O2        1.0  0.285607691627711  0.6551385456853106  0.7134984350168591  1.0000
