data_image0
_chemical_formula_structural       O4SiCaTi2O8SiCa
_chemical_formula_sum              "O12 Si2 Ca2 Ti2"
_cell_length_a       5.019961376957436
_cell_length_b       5.0233081276314095
_cell_length_c       9.909707069396973
_cell_angle_alpha    90.02068431906167
_cell_angle_beta     89.95644638642419
_cell_angle_gamma    119.88098279535723

_space_group_name_H-M_alt    "P 1"
_space_group_IT_number       1

loop_
  _space_group_symop_operation_xyz
  'x, y, z'

loop_
  _atom_site_type_symbol
  _atom_site_label
  _atom_site_symmetry_multiplicity
  _atom_site_fract_x
  _atom_site_fract_y
  _atom_site_fract_z
  _atom_site_occupancy
  O   O1        1.0  0.684721664299271  0.9465756589512145  0.4651883771339774  1.0000
  O   O2        1.0  0.3199065261241159  0.9726773629233708  0.17118201921013962  1.0000
  O   O3        1.0  0.6847387726374512  0.7023771323698613  0.6711220834482106  1.0000
  O   O4        1.0  0.0762260083780586  0.7288721899279503  0.9651019490638721  1.0000
  Si  Si1       1.0  0.37794773957535255  0.6709014410017237  0.5681211851022692  1.0000
  Ca  Ca1       1.0  0.7112795585327514  0.33771658872074883  0.3180610201400649  1.0000
  Ti  Ti1       1.0  0.04449979718957015  0.004743412114243256  0.5677994667557913  1.0000
  Ti  Ti2       1.0  0.3780952742507655  0.6707026071313212  0.06819034879122997  1.0000
  O   O5        1.0  0.3461606427581524  0.9462856986068117  0.6712274377880373  1.0000
  O   O6        1.0  0.10259005186828271  0.7026225390902949  0.4651364808515764  1.0000
  O   O7        1.0  0.34676325701451116  0.3640362086782997  0.4652251566467272  1.0000
  O   O8        1.0  0.3202806446964381  0.31094068613973286  0.965177214151335  1.0000
  O   O9        1.0  0.7378017654058168  0.9730510843531895  0.9651752216630188  1.0000
  O   O10       1.0  0.0758440892007516  0.3113129282013374  0.17108785482815492  1.0000
  O   O11       1.0  0.7378245054458493  0.728990657872325  0.1711449746210974  1.0000
  O   O12       1.0  0.10242294627804563  0.3644304867140809  0.6711593603220597  1.0000
  Si  Si2       1.0  0.044633505882048535  0.004459030627001788  0.06817920813138835  1.0000
  Ca  Ca2       1.0  0.7112663778501552  0.33766843500991195  0.818094738799378  1.0000
