data_image0
_chemical_formula_structural       CaO2SiOTiO3
_chemical_formula_sum              "Ca1 O6 Si1 Ti1"
_cell_length_a       5.351628095034905
_cell_length_b       5.131982019734161
_cell_length_c       5.388970851898193
_cell_angle_alpha    78.86720313606175
_cell_angle_beta     60.99318483235245
_cell_angle_gamma    61.99140940154912

_space_group_name_H-M_alt    "P 1"
_space_group_IT_number       1

loop_
  _space_group_symop_operation_xyz
  'x, y, z'

loop_
  _atom_site_type_symbol
  _atom_site_label
  _atom_site_symmetry_multiplicity
  _atom_site_fract_x
  _atom_site_fract_y
  _atom_site_fract_z
  _atom_site_occupancy
  Ca  Ca1       1.0  0.186381493733506  0.869110675790367  0.49617621182762556  1.0000
  O   O1        1.0  0.7152306759765282  0.3203403102782102  0.5595603900807732  1.0000
  O   O2        1.0  0.5010073544177293  0.9303769855253453  0.024270326657813177  1.0000
  Si  Si1       1.0  0.9011679566402832  0.5300225175948494  0.3933699549139091  1.0000
  O   O3        1.0  0.16298200694536816  0.4143555432073608  0.5166443750022304  1.0000
  Ti  Ti1       1.0  0.37649650266549833  0.20660959277668003  0.7638656802967495  1.0000
  O   O4        1.0  0.07038630603748589  0.5068693699882988  0.04807909878229057  1.0000
  O   O5        1.0  0.22238248691264267  0.9362872755984858  0.019615767122884042  1.0000
  O   O6        1.0  0.6397214441423934  0.8673996273688104  0.4840528166577872  1.0000
