data_image0
_chemical_formula_structural       CaOTiSiCaO5
_chemical_formula_sum              "Ca2 O6 Ti1 Si1"
_cell_length_a       5.2682410506154955
_cell_length_b       5.271943854361961
_cell_length_c       5.30178165435791
_cell_angle_alpha    119.79824300849765
_cell_angle_beta     119.7974330500773
_cell_angle_gamma    90.0149329423123

_space_group_name_H-M_alt    "P 1"
_space_group_IT_number       1

loop_
  _space_group_symop_operation_xyz
  'x, y, z'

loop_
  _atom_site_type_symbol
  _atom_site_label
  _atom_site_symmetry_multiplicity
  _atom_site_fract_x
  _atom_site_fract_y
  _atom_site_fract_z
  _atom_site_occupancy
  Ca  Ca1       1.0  0.4152659443820388  0.5918363337063713  0.8662649157946917  1.0000
  O   O1        1.0  0.9263867398675271  0.6022752149706592  0.8870245716139147  1.0000
  Ti  Ti1       1.0  0.6652963755361762  0.34207766310102566  0.36617683837687687  1.0000
  Si  Si1       1.0  0.1652034142629931  0.8421225535066544  0.3661619183189543  1.0000
  Ca  Ca2       1.0  0.9151807723224157  0.0922516706684052  0.8661118533872522  1.0000
  O   O2        1.0  0.36510919405420733  0.11959954525757126  0.3662875238300279  1.0000
  O   O3        1.0  0.8873106579208037  0.041505087231103924  0.3653671380687875  1.0000
  O   O4        1.0  0.44327879038665324  0.6427673084632355  0.36701961697444435  1.0000
  O   O5        1.0  0.40419002944007465  0.08191036070196403  0.845347438100877  1.0000
  O   O6        1.0  0.9653367803915455  0.5646276675310548  0.36603078339097933  1.0000
