data_image0
_chemical_formula_structural       TiCaOCa2OTiCaO2Si2
_chemical_formula_sum              "Ti2 Ca4 O4 Si2"
_cell_length_a       4.101898671025952
_cell_length_b       4.17020571504496
_cell_length_c       11.943690299987791
_cell_angle_alpha    100.16602138283768
_cell_angle_beta     99.9815590480585
_cell_angle_gamma    90.08259334411285

_space_group_name_H-M_alt    "P 1"
_space_group_IT_number       1

loop_
  _space_group_symop_operation_xyz
  'x, y, z'

loop_
  _atom_site_type_symbol
  _atom_site_label
  _atom_site_symmetry_multiplicity
  _atom_site_fract_x
  _atom_site_fract_y
  _atom_site_fract_z
  _atom_site_occupancy
  Ti  Ti1       1.0  0.83534773252654  0.03436087977886616  0.9656586668169738  1.0000
  Ca  Ca1       1.0  0.26829586405460665  0.5226218025199302  0.829382936147909  1.0000
  O   O1        1.0  0.5201129148586261  0.6979068504309812  0.3340687852412971  1.0000
  Ca  Ca2       1.0  0.4093710917994082  0.5868490336632305  0.11356993013201144  1.0000
  Ca  Ca3       1.0  0.662126661576947  0.8518171385151905  0.6154315355860611  1.0000
  O   O2        1.0  0.7553185031928531  0.872115642395309  0.8037529861699819  1.0000
  Ti  Ti2       1.0  0.022499964723052816  0.6992356028290044  0.33864009051516136  1.0000
  Ca  Ca4       1.0  0.5483369495582523  0.2262468744589492  0.38980208734634114  1.0000
  O   O3        1.0  0.8360555508245416  0.49527759194314785  0.9679594094638349  1.0000
  O   O4        1.0  0.33877873162222927  0.01487850091588456  0.971546753127069  1.0000
  Si  Si1       1.0  0.954494882790123  0.12991080596148175  0.20339994293670113  1.0000
  Si  Si2       1.0  0.13295672832981345  0.320428670985304  0.5575749244201574  1.0000
