data_image0
_chemical_formula_structural       TiSi2O
_chemical_formula_sum              "Ti1 Si2 O1"
_cell_length_a       3.4254586084585843
_cell_length_b       3.642292855604142
_cell_length_c       4.545410633087158
_cell_angle_alpha    100.86077528303778
_cell_angle_beta     90.60378442509011
_cell_angle_gamma    90.685500834203

_space_group_name_H-M_alt    "P 1"
_space_group_IT_number       1

loop_
  _space_group_symop_operation_xyz
  'x, y, z'

loop_
  _atom_site_type_symbol
  _atom_site_label
  _atom_site_symmetry_multiplicity
  _atom_site_fract_x
  _atom_site_fract_y
  _atom_site_fract_z
  _atom_site_occupancy
  Ti  Ti1       1.0  0.959160764263401  0.6080655906473027  0.6999134811709067  1.0000
  Si  Si1       1.0  0.9590775220398992  0.9972373119123094  0.2776952573564759  1.0000
  Si  Si2       1.0  0.45600753789955556  0.48361350008544646  0.22502786185775275  1.0000
  O   O1        1.0  0.4588031161355321  0.4219453797938672  0.8408818259373495  1.0000
