data_image0
_chemical_formula_structural       Ca2Ti2O2Si2O8
_chemical_formula_sum              "Ca2 Ti2 O10 Si2"
_cell_length_a       5.499661406655223
_cell_length_b       5.497262111854895
_cell_length_c       7.12130069732666
_cell_angle_alpha    104.28206457866797
_cell_angle_beta     104.35167671319195
_cell_angle_gamma    105.62120448436747

_space_group_name_H-M_alt    "P 1"
_space_group_IT_number       1

loop_
  _space_group_symop_operation_xyz
  'x, y, z'

loop_
  _atom_site_type_symbol
  _atom_site_label
  _atom_site_symmetry_multiplicity
  _atom_site_fract_x
  _atom_site_fract_y
  _atom_site_fract_z
  _atom_site_occupancy
  Ca  Ca1       1.0  0.33407494154099143  0.34144773661177064  0.7094803240968003  1.0000
  Ca  Ca2       1.0  0.6785012477462373  0.9975851279485496  0.20908530475181838  1.0000
  Ti  Ti1       1.0  0.0063126340140158025  0.6695404014999503  0.9592717302060174  1.0000
  Ti  Ti2       1.0  0.006439415000744514  0.6695033569736731  0.459314136023846  1.0000
  O   O1        1.0  0.692222103898828  0.782585960241667  0.8428589760254581  1.0000
  O   O2        1.0  0.32047690209915075  0.5563969331699605  0.07574743579147902  1.0000
  Si  Si1       1.0  0.3260525642303478  0.34984246878291975  0.20935286749785853  1.0000
  Si  Si2       1.0  0.6867020996869393  0.9892188261605275  0.7092036436406006  1.0000
  O   O3        1.0  0.25714757688740614  0.0466986976865234  0.051000713510712364  1.0000
  O   O4        1.0  0.8928368259966865  0.9834444170628013  0.5754179524792894  1.0000
  O   O5        1.0  0.3833140254481447  0.9206576588008107  0.5511597617582047  1.0000
  O   O6        1.0  0.6294492734351241  0.4183272232407639  0.3674425112120855  1.0000
  O   O7        1.0  0.7555659391289388  0.292383991373663  0.8675981375185867  1.0000
  O   O8        1.0  0.0746072777354375  0.6011717107360337  0.7093130646689286  1.0000
  O   O9        1.0  0.11988534975983131  0.35548582801972833  0.34315523688680477  1.0000
  O   O10       1.0  0.9380849806617383  0.7379554729755419  0.20926513091581278  1.0000
