data_image0
_chemical_formula_structural       SiTiOSiOCa2O2TiO6
_chemical_formula_sum              "Si2 Ti2 O10 Ca2"
_cell_length_a       5.50258096713339
_cell_length_b       5.507278423472531
_cell_length_c       7.112468719482422
_cell_angle_alpha    104.24811101894747
_cell_angle_beta     104.21223405389833
_cell_angle_gamma    105.75623114171201

_space_group_name_H-M_alt    "P 1"
_space_group_IT_number       1

loop_
  _space_group_symop_operation_xyz
  'x, y, z'

loop_
  _atom_site_type_symbol
  _atom_site_label
  _atom_site_symmetry_multiplicity
  _atom_site_fract_x
  _atom_site_fract_y
  _atom_site_fract_z
  _atom_site_occupancy
  Si  Si1       1.0  0.26978661964720907  0.7435200120016436  0.05217395489912717  1.0000
  Ti  Ti1       1.0  0.5894321277801265  0.4237244812938138  0.3020567833797468  1.0000
  O   O1        1.0  0.2757386794923807  0.537369867033814  0.18610232889675232  1.0000
  Si  Si2       1.0  0.9091132748859231  0.10385332029321646  0.5518771114865672  1.0000
  O   O2        1.0  0.5211250550606061  0.49226794523319245  0.5520998036253737  1.0000
  Ca  Ca1       1.0  0.26151756866515746  0.7515829237145023  0.5523180581095769  1.0000
  Ca  Ca2       1.0  0.9174071478767892  0.09577902763955919  0.051940738908197004  1.0000
  O   O3        1.0  0.47614306146440655  0.7374493102059972  0.9182165949368688  1.0000
  O   O4        1.0  0.33846120246914907  0.046577043193775515  0.21008910308295253  1.0000
  Ti  Ti2       1.0  0.5894860443360618  0.42367179946723693  0.8020572941822349  1.0000
  O   O5        1.0  0.7028035234929785  0.10986195333241963  0.6858612397004381  1.0000
  O   O6        1.0  0.65805255512822  0.3552206114874238  0.0520134653105165  1.0000
  O   O7        1.0  0.9031940884062036  0.30998817223355307  0.41795584126039087  1.0000
  O   O8        1.0  0.21220457091745895  0.17271183010686247  0.7100664914925996  1.0000
  O   O9        1.0  0.9667675192887564  0.6747715115004281  0.8939356860653216  1.0000
  O   O10       1.0  0.8405119551044172  0.8008386876741987  0.39395372444074195  1.0000
