data_image0
_chemical_formula_structural       TiSiOCaSiO7
_chemical_formula_sum              "Ti1 Si2 O8 Ca1"
_cell_length_a       5.632363747480569
_cell_length_b       5.633641359684729
_cell_length_c       5.635920047760011
_cell_angle_alpha    106.2178064370056
_cell_angle_beta     106.39356827145554
_cell_angle_gamma    115.77838947807292

_space_group_name_H-M_alt    "P 1"
_space_group_IT_number       1

loop_
  _space_group_symop_operation_xyz
  'x, y, z'

loop_
  _atom_site_type_symbol
  _atom_site_label
  _atom_site_symmetry_multiplicity
  _atom_site_fract_x
  _atom_site_fract_y
  _atom_site_fract_z
  _atom_site_occupancy
  Ti  Ti1       1.0  0.7613787432425257  0.20883537448237724  0.3897748754951384  1.0000
  Si  Si1       1.0  0.06092712757085579  0.05495772862407705  0.9259732831898039  1.0000
  O   O1        1.0  0.48226174046804327  0.7727347538822208  0.22316187512564484  1.0000
  Ca  Ca1       1.0  0.49154014446414235  0.5285699570167448  0.8369575393508168  1.0000
  Si  Si2       1.0  0.26377731665218396  0.7794489276291237  0.3594774552297632  1.0000
  O   O2        1.0  0.17453688613864574  0.5721476563962342  0.509516863755696  1.0000
  O   O3        1.0  0.8566750477877783  0.07623915136371841  0.08136013998922448  1.0000
  O   O4        1.0  0.42108320652059794  0.21897332981295486  0.11429675787167803  1.0000
  O   O5        1.0  0.4761484201490358  0.13665851982577956  0.5619562653150011  1.0000
  O   O6        1.0  0.8966440979411238  0.6903336303475859  0.7332801059240363  1.0000
  O   O7        1.0  0.9459864065496169  0.6711081977092549  0.11479236144456813  1.0000
  O   O8        1.0  0.0027428345853197644  0.17844223011411106  0.6941821870797589  1.0000
