data_image0
_chemical_formula_structural       Ca2OTiO5Si
_chemical_formula_sum              "Ca2 O6 Ti1 Si1"
_cell_length_a       5.264256792616071
_cell_length_b       5.2666125444155565
_cell_length_c       5.300055980682373
_cell_angle_alpha    119.76598918235221
_cell_angle_beta     119.7584873467671
_cell_angle_gamma    89.99593961248785

_space_group_name_H-M_alt    "P 1"
_space_group_IT_number       1

loop_
  _space_group_symop_operation_xyz
  'x, y, z'

loop_
  _atom_site_type_symbol
  _atom_site_label
  _atom_site_symmetry_multiplicity
  _atom_site_fract_x
  _atom_site_fract_y
  _atom_site_fract_z
  _atom_site_occupancy
  Ca  Ca1       1.0  0.7076145895081514  0.5133385977188761  0.9875731130705904  1.0000
  Ca  Ca2       1.0  0.20775937514239706  0.013502424944027227  0.987848214635558  1.0000
  O   O1        1.0  0.7182307523727568  0.023873654960830534  0.008381282617781151  1.0000
  Ti  Ti1       1.0  0.45762768166208667  0.763386871113427  0.4876671978182047  1.0000
  O   O2        1.0  0.23457418435061722  0.06302631435484919  0.487709675185841  1.0000
  O   O3        1.0  0.6806412331185312  0.4636982886203105  0.48750228501941767  1.0000
  O   O4        1.0  0.15823978026177754  0.5403448835189353  0.4879380357381498  1.0000
  O   O5        1.0  0.7571786637853577  0.9863874976429572  0.48751231413236734  1.0000
  O   O6        1.0  0.19713597401495253  0.502953462167804  0.9670222919012367  1.0000
  Si  Si1       1.0  0.9576684026525386  0.263365997712635  0.4876609523948796  1.0000
