data_image0
_chemical_formula_structural       CaOSi2
_chemical_formula_sum              "Ca1 O1 Si2"
_cell_length_a       3.7894577211768192
_cell_length_b       3.7942655378354235
_cell_length_c       5.672640323638916
_cell_angle_alpha    90.0295908867328
_cell_angle_beta     90.03325869499656
_cell_angle_gamma    120.01322880873171

_space_group_name_H-M_alt    "P 1"
_space_group_IT_number       1

loop_
  _space_group_symop_operation_xyz
  'x, y, z'

loop_
  _atom_site_type_symbol
  _atom_site_label
  _atom_site_symmetry_multiplicity
  _atom_site_fract_x
  _atom_site_fract_y
  _atom_site_fract_z
  _atom_site_occupancy
  Ca  Ca1       1.0  0.021389525960374873  0.024472163217208607  0.10378129263181513  1.0000
  O   O1        1.0  0.3545563785536  0.6910058248628944  0.2399854192716217  1.0000
  Si  Si1       1.0  0.6880860045107128  0.35775752874780076  0.7036148075502925  1.0000
  Si  Si2       1.0  0.35485469472509673  0.6911566281076471  0.537592614271017  1.0000
