data_image0
_chemical_formula_structural       TiCaO3TiSiTiO4
_chemical_formula_sum              "Ti3 Ca1 O7 Si1"
_cell_length_a       3.8186440708121916
_cell_length_b       5.458271912552265
_cell_length_c       8.893888473510742
_cell_angle_alpha    73.46608133565758
_cell_angle_beta     72.51993564762327
_cell_angle_gamma    75.18416635116614

_space_group_name_H-M_alt    "P 1"
_space_group_IT_number       1

loop_
  _space_group_symop_operation_xyz
  'x, y, z'

loop_
  _atom_site_type_symbol
  _atom_site_label
  _atom_site_symmetry_multiplicity
  _atom_site_fract_x
  _atom_site_fract_y
  _atom_site_fract_z
  _atom_site_occupancy
  Ti  Ti1       1.0  0.24482113723067028  0.7774854810189895  0.24329444295080851  1.0000
  Ca  Ca1       1.0  0.7146785455559123  0.27226780656920857  0.4616017323281944  1.0000
  O   O1        1.0  0.3014568158603111  0.36582436276433666  0.30130641255673957  1.0000
  O   O2        1.0  0.8972044421435705  0.3583394500092707  0.8359993340838625  1.0000
  O   O3        1.0  0.44489837044615027  0.5657782079987427  0.6503077486744205  1.0000
  Ti  Ti2       1.0  0.8718696479319117  0.6883304690362764  0.6750517203320243  1.0000
  Si  Si1       1.0  0.19592699121672957  0.4327214539200206  0.11366407025851274  1.0000
  Ti  Ti3       1.0  0.4139561502793499  0.27784268398902323  0.8534792839840185  1.0000
  O   O4        1.0  0.8121290751161906  0.6737947676298085  0.18641455198067888  1.0000
  O   O5        1.0  0.003524285467666921  0.8405122127639318  0.44392673540715166  1.0000
  O   O6        1.0  0.17223773614332102  0.12389950331119695  0.11201307867926544  1.0000
  O   O7        1.0  0.6518179270665078  0.9900759526268674  0.7414952064485756  1.0000
