data_image0
_chemical_formula_structural       SiCaOTiO2TiO2CaOSiO4
_chemical_formula_sum              "Si2 Ca2 O10 Ti2"
_cell_length_a       5.513827933025633
_cell_length_b       5.512246852339579
_cell_length_c       7.129679203033448
_cell_angle_alpha    104.02197697758302
_cell_angle_beta     103.98122242056229
_cell_angle_gamma    105.67133117024771

_space_group_name_H-M_alt    "P 1"
_space_group_IT_number       1

loop_
  _space_group_symop_operation_xyz
  'x, y, z'

loop_
  _atom_site_type_symbol
  _atom_site_label
  _atom_site_symmetry_multiplicity
  _atom_site_fract_x
  _atom_site_fract_y
  _atom_site_fract_z
  _atom_site_occupancy
  Si  Si1       1.0  0.05543976261280845  0.8170917351850266  0.1510536845957022  1.0000
  Ca  Ca1       1.0  0.7033912357788752  0.16933404938015412  0.15106055503110308  1.0000
  O   O1        1.0  0.6269404221314239  0.8737568838848674  0.49489322912772904  1.0000
  Ti  Ti1       1.0  0.3756189962645848  0.4968905219529512  0.901039738699742  1.0000
  O   O2        1.0  0.26073146821809695  0.809555976061055  0.016096622867021775  1.0000
  O   O3        1.0  0.49049276728725066  0.18419015284500856  0.7859825659924324  1.0000
  Ti  Ti2       1.0  0.3756255801884292  0.49684036896392375  0.4010380141046151  1.0000
  O   O4        1.0  0.752615981476076  0.7480221866254309  0.9950259799398746  1.0000
  O   O5        1.0  0.12432717932367829  0.12000683321392984  0.30718609033093336  1.0000
  Ca  Ca2       1.0  0.04788920837406231  0.8244643057754302  0.6509919767395652  1.0000
  O   O6        1.0  0.6880725588533984  0.3818418495483547  0.5160505562078449  1.0000
  Si  Si2       1.0  0.6957847240705843  0.17663728062438802  0.6510312949135171  1.0000
  O   O7        1.0  0.3079274085743824  0.5650013849367943  0.6511624490970369  1.0000
  O   O8        1.0  0.0631319218944315  0.6119299823853324  0.286081214554292  1.0000
  O   O9        1.0  0.9985976781931368  0.24577432534204974  0.8070844702264504  1.0000
  O   O10       1.0  0.44332386098642346  0.4287870343469901  0.1509479491942376  1.0000
