data_image0
_chemical_formula_structural       CaTiCaO3SiO3
_chemical_formula_sum              "Ca2 Ti1 O6 Si1"
_cell_length_a       5.256746843307357
_cell_length_b       5.258923473626197
_cell_length_c       5.292919635772705
_cell_angle_alpha    119.8919515263087
_cell_angle_beta     119.8114226074313
_cell_angle_gamma    89.98589752436366

_space_group_name_H-M_alt    "P 1"
_space_group_IT_number       1

loop_
  _space_group_symop_operation_xyz
  'x, y, z'

loop_
  _atom_site_type_symbol
  _atom_site_label
  _atom_site_symmetry_multiplicity
  _atom_site_fract_x
  _atom_site_fract_y
  _atom_site_fract_z
  _atom_site_occupancy
  Ca  Ca1       1.0  0.09072813201234771  0.16563475182883391  0.43256405251709285  1.0000
  Ti  Ti1       1.0  0.3403485695732633  0.9157323341522963  0.9325326981232086  1.0000
  Ca  Ca2       1.0  0.5898198098610686  0.6658960899699384  0.4323928027865362  1.0000
  O   O1        1.0  0.11845440210091555  0.6151470979298329  0.9328941722476799  1.0000
  O   O2        1.0  0.6009617702838259  0.17627057409262262  0.4534410801418078  1.0000
  O   O3        1.0  0.03969490268634254  0.13774091180037473  0.9328792335791188  1.0000
  Si  Si1       1.0  0.8401570892458806  0.41578137649988717  0.9325526469097571  1.0000
  O   O4        1.0  0.5620683578767202  0.21643607705335532  0.9323253278034583  1.0000
  O   O5        1.0  0.07964894414772039  0.6553500492269275  0.4116934068069043  1.0000
  O   O6        1.0  0.64072026185424  0.6937354758926102  0.9321933323372829  1.0000
