data_image0
_chemical_formula_structural       TiCaSiOCaOTiOSiO7
_chemical_formula_sum              "Ti2 Ca2 Si2 O10"
_cell_length_a       5.5032182159784995
_cell_length_b       5.5028975788820755
_cell_length_c       7.116202354431152
_cell_angle_alpha    104.28442222867646
_cell_angle_beta     104.3003016440657
_cell_angle_gamma    105.60233371573678

_space_group_name_H-M_alt    "P 1"
_space_group_IT_number       1

loop_
  _space_group_symop_operation_xyz
  'x, y, z'

loop_
  _atom_site_type_symbol
  _atom_site_label
  _atom_site_symmetry_multiplicity
  _atom_site_fract_x
  _atom_site_fract_y
  _atom_site_fract_z
  _atom_site_occupancy
  Ti  Ti1       1.0  0.7144069031768223  0.9377599426020347  0.5516665523199501  1.0000
  Ca  Ca1       1.0  0.042586018830878855  0.609595048006198  0.8015573414122503  1.0000
  Si  Si1       1.0  0.3948090250249919  0.25741583019936926  0.8017250896731621  1.0000
  O   O1        1.0  0.33746650498308395  0.6869721941708877  0.4593640213794214  1.0000
  Ca  Ca2       1.0  0.38624892019281415  0.2660157916874205  0.3017267652349497  1.0000
  O   O2        1.0  0.600568982012449  0.2510655921723805  0.6675805955981065  1.0000
  Ti  Ti2       1.0  0.7144182497966212  0.9377030786938022  0.051703510941517004  1.0000
  O   O3        1.0  0.6455587704022873  0.006376453991374731  0.30164395533049343  1.0000
  Si  Si2       1.0  0.03405969493298325  0.6181055984113297  0.3016380287993935  1.0000
  O   O4        1.0  0.8280536859423765  0.6244842622633361  0.4356026690933957  1.0000
  O   O5        1.0  0.7830038121201744  0.8689023694157979  0.8016330950178923  1.0000
  O   O6        1.0  0.09126255384158387  0.18855962471474358  0.6442407813283354  1.0000
  O   O7        1.0  0.40114075183468617  0.051646233076114004  0.9358848869225396  1.0000
  O   O8        1.0  0.027789742198146093  0.82394176678673  0.16752257503842255  1.0000
  O   O9        1.0  0.4636340531664051  0.5608985893948198  0.9592133926081134  1.0000
  O   O10       1.0  0.9652548721470497  0.3145745890125781  0.14420794979520488  1.0000
