data_image0
_chemical_formula_structural       Ca2TiO2SiO4
_chemical_formula_sum              "Ca2 Ti1 O6 Si1"
_cell_length_a       5.29148433705629
_cell_length_b       5.293075529560323
_cell_length_c       5.293271541595459
_cell_angle_alpha    59.98543223122173
_cell_angle_beta     59.98916353982783
_cell_angle_gamma    59.997857972827376

_space_group_name_H-M_alt    "P 1"
_space_group_IT_number       1

loop_
  _space_group_symop_operation_xyz
  'x, y, z'

loop_
  _atom_site_type_symbol
  _atom_site_label
  _atom_site_symmetry_multiplicity
  _atom_site_fract_x
  _atom_site_fract_y
  _atom_site_fract_z
  _atom_site_occupancy
  Ca  Ca1       1.0  0.8012796751823635  0.6732649369184429  0.6262125803199222  1.0000
  Ca  Ca2       1.0  0.3014707274850851  0.17342192719971294  0.12666148057290064  1.0000
  Ti  Ti1       1.0  0.051343644613680274  0.9234627706359422  0.8766067941905621  1.0000
  O   O1        1.0  0.7904402686808556  0.6625179967632311  0.13746978026166842  1.0000
  O   O2        1.0  0.3119876550024039  0.6622568033724232  0.13749705765600925  1.0000
  Si  Si1       1.0  0.5513346159451358  0.423417275780686  0.37660709998598235  1.0000
  O   O3        1.0  0.3121280530889443  0.18401609594625776  0.615850170288873  1.0000
  O   O4        1.0  0.7904731361508871  0.18406888693212223  0.1374719532981132  1.0000
  O   O5        1.0  0.790373472941424  0.18414902985510498  0.6158934631406686  1.0000
  O   O6        1.0  0.3120211140422882  0.662549129414891  0.6157562066325482  1.0000
