data_image0
_chemical_formula_structural       TiCa2O3Si2OSiO6
_chemical_formula_sum              "Ti1 Ca2 O10 Si3"
_cell_length_a       4.958486134489098
_cell_length_b       6.071177045761041
_cell_length_c       9.62514877319336
_cell_angle_alpha    90.05120160078195
_cell_angle_beta     74.9744954134354
_cell_angle_gamma    88.60735424366695

_space_group_name_H-M_alt    "P 1"
_space_group_IT_number       1

loop_
  _space_group_symop_operation_xyz
  'x, y, z'

loop_
  _atom_site_type_symbol
  _atom_site_label
  _atom_site_symmetry_multiplicity
  _atom_site_fract_x
  _atom_site_fract_y
  _atom_site_fract_z
  _atom_site_occupancy
  Ti  Ti1       1.0  0.6046000255886227  0.303592255241746  0.7337945365967725  1.0000
  Ca  Ca1       1.0  0.7748630343562628  0.2917488075942705  0.315900347741318  1.0000
  Ca  Ca2       1.0  0.2960784005887592  0.8085916653119603  0.3007234067317049  1.0000
  O   O1        1.0  0.9883387582119793  0.5455195182120236  0.16800019178242753  1.0000
  O   O2        1.0  0.3568199520980955  0.5341945016215058  0.43746090084627326  1.0000
  O   O3        1.0  0.17764685317605103  0.8270502910945958  0.9479640784536267  1.0000
  Si  Si1       1.0  0.9343342145601883  0.776930263376636  0.09720627902526162  1.0000
  Si  Si2       1.0  0.21577634720044908  0.3188371810920574  0.5212725966398675  1.0000
  O   O4        1.0  0.8666514700257689  0.3180100750665319  0.555817457180305  1.0000
  Si  Si3       1.0  0.5184233049373028  0.8074281644582662  0.9048088093528993  1.0000
  O   O5        1.0  0.9268493885630529  0.9659041195083885  0.2180862372178207  1.0000
  O   O6        1.0  0.6159606880761238  0.5718461998017689  0.8204681846294655  1.0000
  O   O7        1.0  0.2802572770167532  0.2986345989923066  0.6826881052112492  1.0000
  O   O8        1.0  0.3429967647952502  0.11146580962125402  0.4173223615448301  1.0000
  O   O9        1.0  0.634492071220022  0.03361810730716651  0.8184833177034527  1.0000
  O   O10       1.0  0.6236983185392374  0.7957094064198786  0.05604007250735079  1.0000
