data_image0
_chemical_formula_structural       CaSiTiO2TiO3SiO2
_chemical_formula_sum              "Ca1 Si2 Ti2 O7"
_cell_length_a       5.41208210195413
_cell_length_b       5.414099810476885
_cell_length_c       7.993323802947998
_cell_angle_alpha    70.23049836506078
_cell_angle_beta     70.26681312443047
_cell_angle_gamma    59.81279932407979

_space_group_name_H-M_alt    "P 1"
_space_group_IT_number       1

loop_
  _space_group_symop_operation_xyz
  'x, y, z'

loop_
  _atom_site_type_symbol
  _atom_site_label
  _atom_site_symmetry_multiplicity
  _atom_site_fract_x
  _atom_site_fract_y
  _atom_site_fract_z
  _atom_site_occupancy
  Ca  Ca1       1.0  0.852259658030477  0.6514092831873881  0.5413179877746283  1.0000
  Si  Si1       1.0  0.4211545700018499  0.22046130732048952  0.8323408866095406  1.0000
  Ti  Ti1       1.0  0.2649224300476465  0.06426968496399664  0.30345310635127865  1.0000
  O   O1        1.0  0.4401006612919601  0.9626856519513721  0.753624342056521  1.0000
  O   O2        1.0  0.5509062942669886  0.10838736646703025  0.3596285986432448  1.0000
  Ti  Ti2       1.0  0.11830929467422215  0.9169023375331761  0.7426252005622259  1.0000
  O   O3        1.0  0.1623878529972437  0.5387279567763137  0.753628316452672  1.0000
  O   O4        1.0  0.30791736663506647  0.6785768360867324  0.3596393931429696  1.0000
  O   O5        1.0  0.8783410891133184  0.3511366742893787  0.3592716334516951  1.0000
  Si  Si2       1.0  0.6177678467863795  0.4178479431485609  0.2427797650886518  1.0000
  O   O6        1.0  0.3488213858591929  0.14719576931390843  0.052227053030712754  1.0000
  O   O7        1.0  0.7387194572594115  0.23913441371280283  0.7532169277071381  1.0000
