data_image0
_chemical_formula_structural       CaSiO2TiO4SiO
_chemical_formula_sum              "Ca1 Si2 O7 Ti1"
_cell_length_a       6.538733370354958
_cell_length_b       5.480683076451505
_cell_length_c       5.364989280700684
_cell_angle_alpha    96.01743375564779
_cell_angle_beta     110.5986844505884
_cell_angle_gamma    124.10799744132082

_space_group_name_H-M_alt    "P 1"
_space_group_IT_number       1

loop_
  _space_group_symop_operation_xyz
  'x, y, z'

loop_
  _atom_site_type_symbol
  _atom_site_label
  _atom_site_symmetry_multiplicity
  _atom_site_fract_x
  _atom_site_fract_y
  _atom_site_fract_z
  _atom_site_occupancy
  Ca  Ca1       1.0  0.688573301122443  0.517161349775528  0.773632121103901  1.0000
  Si  Si1       1.0  0.048561398908146085  0.0609000197058755  0.5563117942329251  1.0000
  O   O1        1.0  0.24997176265971366  0.9683818301822938  0.7131068600753646  1.0000
  O   O2        1.0  0.7557427701800099  0.24815088084153591  0.10262617430804544  1.0000
  Ti  Ti1       1.0  0.0963523872826415  0.31306532355532374  0.1594429273227223  1.0000
  O   O3        1.0  0.417134732198292  0.28183995713770843  0.2481392421920015  1.0000
  O   O4        1.0  0.2605746063898897  0.4325449207064815  0.5794683856553894  1.0000
  O   O5        1.0  0.890100446809599  0.025926101511203493  0.7430220113057917  1.0000
  O   O6        1.0  0.8770024986792104  0.8737563652392187  0.209592871619084  1.0000
  Si  Si2       1.0  0.43362072020211295  0.04374981033289274  0.06063306262617583  1.0000
  O   O7        1.0  0.27777422501837684  0.7052447245814232  0.11043869668793735  1.0000
