data_image0
_chemical_formula_structural       SiTiCaOSiTiO
_chemical_formula_sum              "Si2 Ti2 Ca1 O2"
_cell_length_a       4.060449510743673
_cell_length_b       4.052959528978979
_cell_length_c       6.6467156410217285
_cell_angle_alpha    107.77978369414166
_cell_angle_beta     107.85633566718957
_cell_angle_gamma    89.93828473526005

_space_group_name_H-M_alt    "P 1"
_space_group_IT_number       1

loop_
  _space_group_symop_operation_xyz
  'x, y, z'

loop_
  _atom_site_type_symbol
  _atom_site_label
  _atom_site_symmetry_multiplicity
  _atom_site_fract_x
  _atom_site_fract_y
  _atom_site_fract_z
  _atom_site_occupancy
  Si  Si1       1.0  0.2820446867203631  0.7102499761118164  0.02701800203415729  1.0000
  Ti  Ti1       1.0  0.44377935493278575  0.3717089617221374  0.3500700511864482  1.0000
  Ca  Ca1       1.0  0.6937196461353751  0.12178279008855683  0.8500941020105385  1.0000
  O   O1        1.0  0.8905381172563587  0.3185905861653866  0.24373130466427978  1.0000
  Si  Si2       1.0  0.10538460746818368  0.5332644936122376  0.6731457036570824  1.0000
  Ti  Ti2       1.0  0.9436654963714156  0.8717639802206075  0.3501149549379174  1.0000
  O   O2        1.0  0.4968710355848577  0.9248410301078773  0.4563722454396167  1.0000
