data_image0
_chemical_formula_structural       CaSiOTi
_chemical_formula_sum              "Ca1 Si1 O1 Ti1"
_cell_length_a       3.1130226862395265
_cell_length_b       3.1170862782405284
_cell_length_c       7.079781055450439
_cell_angle_alpha    90.06114635559862
_cell_angle_beta     89.97249050281106
_cell_angle_gamma    119.95984392109888

_space_group_name_H-M_alt    "P 1"
_space_group_IT_number       1

loop_
  _space_group_symop_operation_xyz
  'x, y, z'

loop_
  _atom_site_type_symbol
  _atom_site_label
  _atom_site_symmetry_multiplicity
  _atom_site_fract_x
  _atom_site_fract_y
  _atom_site_fract_z
  _atom_site_occupancy
  Ca  Ca1       1.0  0.3046507771380996  0.4972583803501533  0.527434687007593  1.0000
  Si  Si1       1.0  0.6378178140084346  0.16341526599441036  0.8633507811412761  1.0000
  O   O1        1.0  0.6378048019431813  0.16340522535641394  0.3176933079730781  1.0000
  Ti  Ti1       1.0  0.9711279819737915  0.830062116397375  0.1331765378180795  1.0000
