data_image0
_chemical_formula_structural       SiTiO2CaOSiO5
_chemical_formula_sum              "Si2 Ti1 O8 Ca1"
_cell_length_a       5.357381791064748
_cell_length_b       5.360867977143543
_cell_length_c       6.508161067962647
_cell_angle_alpha    89.99996152334292
_cell_angle_beta     89.9318918508882
_cell_angle_gamma    119.8876076489402

_space_group_name_H-M_alt    "P 1"
_space_group_IT_number       1

loop_
  _space_group_symop_operation_xyz
  'x, y, z'

loop_
  _atom_site_type_symbol
  _atom_site_label
  _atom_site_symmetry_multiplicity
  _atom_site_fract_x
  _atom_site_fract_y
  _atom_site_fract_z
  _atom_site_occupancy
  Si  Si1       1.0  0.313385419371623  0.2288604695715984  0.40472129893445974  1.0000
  Ti  Ti1       1.0  0.6464186398805014  0.8951758158698252  0.6620540649852636  1.0000
  O   O1        1.0  0.8112945022317231  0.22534454193134792  0.8488966583515771  1.0000
  O   O2        1.0  0.8112163368012941  0.7301471688923447  0.848994453857996  1.0000
  Ca  Ca1       1.0  0.6465747142854067  0.8951837448612904  0.16189469846131246  1.0000
  O   O3        1.0  0.9767536428982819  0.06009898139977837  0.47536124273569275  1.0000
  Si  Si2       1.0  0.9795441929819068  0.5615532056223994  0.9195858460277206  1.0000
  O   O4        1.0  0.9799306972876787  0.5617699994179357  0.17377862384639156  1.0000
  O   O5        1.0  0.48157571689435036  0.5650845884440322  0.4753402843720621  1.0000
  O   O6        1.0  0.3161614877724062  0.730290597111959  0.8488561430516512  1.0000
  O   O7        1.0  0.31283622719033244  0.22871653429236355  0.15053203644080096  1.0000
  O   O8        1.0  0.4817772149864269  0.06024437528994407  0.4750624237411292  1.0000
