data_image0
_chemical_formula_structural       O2SiOTiCaOTiO
_chemical_formula_sum              "O5 Si1 Ti2 Ca1"
_cell_length_a       4.362526437000209
_cell_length_b       5.516965135723565
_cell_length_c       5.7027482986450195
_cell_angle_alpha    76.75562383193008
_cell_angle_beta     72.14657625652154
_cell_angle_gamma    69.94734233706747

_space_group_name_H-M_alt    "P 1"
_space_group_IT_number       1

loop_
  _space_group_symop_operation_xyz
  'x, y, z'

loop_
  _atom_site_type_symbol
  _atom_site_label
  _atom_site_symmetry_multiplicity
  _atom_site_fract_x
  _atom_site_fract_y
  _atom_site_fract_z
  _atom_site_occupancy
  O   O1        1.0  0.9276053809058149  0.41316973958652975  0.4315994256133625  1.0000
  O   O2        1.0  0.6426262097981339  0.3266505969094032  0.10639814681858867  1.0000
  Si  Si1       1.0  0.7396600392054272  0.5489479823359084  0.2054422059641958  1.0000
  O   O3        1.0  0.9737365626632484  0.6904194101252288  0.9767764376011263  1.0000
  Ti  Ti1       1.0  0.05485648735403881  0.9975918181805047  0.08821143508075593  1.0000
  Ca  Ca1       1.0  0.4387175280459752  0.44565865260087273  0.744425882237692  1.0000
  O   O4        1.0  0.27881087770139995  0.08079405881552945  0.7454682201829943  1.0000
  Ti  Ti2       1.0  0.35338401159971433  0.09843839168864589  0.38193278819031634  1.0000
  O   O5        1.0  0.36563234193634186  0.740993576410548  0.3364694243548854  1.0000
