data_image0
_chemical_formula_structural       OSiCaO4TiSiO
_chemical_formula_sum              "O6 Si2 Ca1 Ti1"
_cell_length_a       5.3011248398447846
_cell_length_b       5.302615111104568
_cell_length_c       6.336496353149414
_cell_angle_alpha    65.19116365047488
_cell_angle_beta     65.16752854819838
_cell_angle_gamma    59.89637645458707

_space_group_name_H-M_alt    "P 1"
_space_group_IT_number       1

loop_
  _space_group_symop_operation_xyz
  'x, y, z'

loop_
  _atom_site_type_symbol
  _atom_site_label
  _atom_site_symmetry_multiplicity
  _atom_site_fract_x
  _atom_site_fract_y
  _atom_site_fract_z
  _atom_site_occupancy
  O   O1        1.0  0.11305800154600079  0.13254141478630527  0.6389625349524471  1.0000
  Si  Si1       1.0  0.545942612536028  0.35807130581116253  0.13776790717416293  1.0000
  Ca  Ca1       1.0  0.786781881399304  0.59910244284361  0.4142451515250982  1.0000
  O   O2        1.0  0.7032833933243786  0.9247499236882737  0.6390072173095376  1.0000
  O   O3        1.0  0.6793379436788132  0.04769199918061682  0.05830099167035445  1.0000
  O   O4        1.0  0.8021415566766849  0.4915813142788332  0.05858541021237221  1.0000
  O   O5        1.0  0.23510765379560053  0.6143898627586266  0.05849808684964182  1.0000
  Ti  Ti1       1.0  0.9771234596168922  0.789315058513333  0.8437089988775165  1.0000
  Si  Si2       1.0  0.40690973848029105  0.21888539391489567  0.5548474738830217  1.0000
  O   O6        1.0  0.32052168385407587  0.5147781832365452  0.6391243992193382  1.0000
