data_image0
_chemical_formula_structural       CaO4Si2TiOTiOSiO3
_chemical_formula_sum              "Ca1 O9 Si3 Ti2"
_cell_length_a       5.584790276524942
_cell_length_b       5.486428837035883
_cell_length_c       7.968536853790282
_cell_angle_alpha    107.81068256481876
_cell_angle_beta     113.07200534903814
_cell_angle_gamma    94.0230998322703

_space_group_name_H-M_alt    "P 1"
_space_group_IT_number       1

loop_
  _space_group_symop_operation_xyz
  'x, y, z'

loop_
  _atom_site_type_symbol
  _atom_site_label
  _atom_site_symmetry_multiplicity
  _atom_site_fract_x
  _atom_site_fract_y
  _atom_site_fract_z
  _atom_site_occupancy
  Ca  Ca1       1.0  0.3698927957279379  0.1340285443586888  0.28364155757011983  1.0000
  O   O1        1.0  0.5526555801987871  0.5081897045293127  0.25590214258933863  1.0000
  O   O2        1.0  0.1070645026525211  0.32293625701421874  0.9026877324229968  1.0000
  O   O3        1.0  0.9523355672606844  0.22886843018343062  0.16494119880642835  1.0000
  O   O4        1.0  0.7988017295495573  0.19704924961182066  0.49829613131068107  1.0000
  Si  Si1       1.0  0.9289640661974042  0.07554099074580067  0.6618357474233793  1.0000
  Si  Si2       1.0  0.42940240831035725  0.54126919357863  0.04891062283115888  1.0000
  Ti  Ti1       1.0  0.39949184008798216  0.6896667674872047  0.7366806362369308  1.0000
  O   O5        1.0  0.3681679622482369  0.8084571462939623  0.014988873519683909  1.0000
  Ti  Ti2       1.0  0.9843640833192813  0.4748308046588457  0.4419747361110786  1.0000
  O   O6        1.0  0.7137849982086071  0.995428419759529  0.7519198976088615  1.0000
  Si  Si3       1.0  0.8338774632012854  0.2609130874076356  0.9594525656064786  1.0000
  O   O7        1.0  0.6223738503047513  0.4562958319397982  0.9299310358544502  1.0000
  O   O8        1.0  0.3217737859709211  0.36553513054052317  0.5437468011699683  1.0000
  O   O9        1.0  0.09966689165794587  0.8649778307326075  0.62229293702649  1.0000
