data_image0
_chemical_formula_structural       TiO2Si2CaO4
_chemical_formula_sum              "Ti1 O6 Si2 Ca1"
_cell_length_a       5.104052025034607
_cell_length_b       5.105606543442449
_cell_length_c       5.14385461807251
_cell_angle_alpha    60.254454313528825
_cell_angle_beta     60.17491485250873
_cell_angle_gamma    59.86656859554853

_space_group_name_H-M_alt    "P 1"
_space_group_IT_number       1

loop_
  _space_group_symop_operation_xyz
  'x, y, z'

loop_
  _atom_site_type_symbol
  _atom_site_label
  _atom_site_symmetry_multiplicity
  _atom_site_fract_x
  _atom_site_fract_y
  _atom_site_fract_z
  _atom_site_occupancy
  Ti  Ti1       1.0  0.6396725133435958  0.5509661088826462  0.6091136307048195  1.0000
  O   O1        1.0  0.5626750335527851  0.010179897857194009  0.21335782534451964  1.0000
  O   O2        1.0  0.043036974392379544  0.083385443931268  0.7048532398774865  1.0000
  Si  Si1       1.0  0.8640523398124738  0.7746410418170394  0.9375196789225791  1.0000
  Si  Si2       1.0  0.3613673238905753  0.271863576371606  0.445597032711743  1.0000
  Ca  Ca1       1.0  0.11440539214424404  0.024225195043881265  0.1871012181058747  1.0000
  O   O3        1.0  0.17318558185667096  0.5192807165617063  0.7048435274083629  1.0000
  O   O4        1.0  0.6534064794330513  0.4732250758189975  0.21336280347740902  1.0000
  O   O5        1.0  0.6095133689207607  0.9534114345950869  0.7041301305473934  1.0000
  O   O6        1.0  0.09969847143166675  0.5638612502216417  0.2138153955935134  1.0000
