data_image0
_chemical_formula_structural       SiCaTiOCaO5
_chemical_formula_sum              "Si1 Ca2 Ti1 O6"
_cell_length_a       5.288152360635149
_cell_length_b       5.288630274928529
_cell_length_c       5.281953811645508
_cell_angle_alpha    60.30652145633881
_cell_angle_beta     59.963699206535026
_cell_angle_gamma    59.996846790967695

_space_group_name_H-M_alt    "P 1"
_space_group_IT_number       1

loop_
  _space_group_symop_operation_xyz
  'x, y, z'

loop_
  _atom_site_type_symbol
  _atom_site_label
  _atom_site_symmetry_multiplicity
  _atom_site_fract_x
  _atom_site_fract_y
  _atom_site_fract_z
  _atom_site_occupancy
  Si  Si1       1.0  0.008592126719744018  0.7755547709032428  0.9902339687096903  1.0000
  Ca  Ca1       1.0  0.7576766259714406  0.5302737498515391  0.7372501223731549  1.0000
  Ti  Ti1       1.0  0.5085601369605993  0.2756542008809173  0.4901745704184157  1.0000
  O   O1        1.0  0.770354376687349  0.0696745867342676  0.1736193741015341  1.0000
  Ca  Ca2       1.0  0.2593843544358221  0.021080459349595588  0.24307457971153823  1.0000
  O   O2        1.0  0.7395585246447427  0.5663753888868645  0.2580169185143096  1.0000
  O   O3        1.0  0.2193918821505258  0.5657560558435383  0.2577417947857041  1.0000
  O   O4        1.0  0.7975209153218287  0.9854290963559623  0.723058639457766  1.0000
  O   O5        1.0  0.2774100162375357  0.9848620960072265  0.7226699630400659  1.0000
  O   O6        1.0  0.24676019148308942  0.4813917172628227  0.8072162581005282  1.0000
