data_image0
_chemical_formula_structural       SiCaSiO6
_chemical_formula_sum              "Si2 Ca1 O6"
_cell_length_a       4.7593123345164745
_cell_length_b       4.764061716125846
_cell_length_c       5.092113494873046
_cell_angle_alpha    89.95165842640343
_cell_angle_beta     89.94631721620993
_cell_angle_gamma    119.91791862596475

_space_group_name_H-M_alt    "P 1"
_space_group_IT_number       1

loop_
  _space_group_symop_operation_xyz
  'x, y, z'

loop_
  _atom_site_type_symbol
  _atom_site_label
  _atom_site_symmetry_multiplicity
  _atom_site_fract_x
  _atom_site_fract_y
  _atom_site_fract_z
  _atom_site_occupancy
  Si  Si1       1.0  0.20219583199697555  0.5487294865340601  0.7511411940367808  1.0000
  Ca  Ca1       1.0  0.8687555330373394  0.8819614261717665  0.2512147262105896  1.0000
  Si  Si2       1.0  0.5353800783819153  0.2151370280769372  0.7512136460449426  1.0000
  O   O1        1.0  0.25148560309118906  0.8823905633070357  0.5561957904058304  1.0000
  O   O2        1.0  0.4859995020709322  0.8814710663814325  0.9462048188184676  1.0000
  O   O3        1.0  0.4866111255135053  0.4996883047310253  0.5560100111577754  1.0000
  O   O4        1.0  0.25105945224821175  0.2642926491576676  0.9464794408189879  1.0000
  O   O5        1.0  0.8693064817151706  0.2648931482112443  0.5561083431788535  1.0000
  O   O6        1.0  0.8683109317559402  0.49913947449744406  0.9462450347920666  1.0000
