data_image0
_chemical_formula_structural       OSiOTiSiO3CaO
_chemical_formula_sum              "O6 Si2 Ti1 Ca1"
_cell_length_a       5.609810588208551
_cell_length_b       5.6656752434295115
_cell_length_c       5.796106815338135
_cell_angle_alpha    104.35531778711119
_cell_angle_beta     102.89869969038813
_cell_angle_gamma    123.67082057996461

_space_group_name_H-M_alt    "P 1"
_space_group_IT_number       1

loop_
  _space_group_symop_operation_xyz
  'x, y, z'

loop_
  _atom_site_type_symbol
  _atom_site_label
  _atom_site_symmetry_multiplicity
  _atom_site_fract_x
  _atom_site_fract_y
  _atom_site_fract_z
  _atom_site_occupancy
  O   O1        1.0  0.2664124341988102  0.6909087347316987  0.6550084261129308  1.0000
  Si  Si1       1.0  0.037063666854523954  0.7672485350675408  0.17055813377538334  1.0000
  O   O2        1.0  0.6368526605796568  0.48971577987083637  0.04261854217799951  1.0000
  Ti  Ti1       1.0  0.3144118533594933  0.07499515297873005  0.7298363172913119  1.0000
  Si  Si2       1.0  0.004447027998794706  0.40937692605096215  0.7168305054909039  1.0000
  O   O3        1.0  0.13648161095084138  0.5391744679498868  0.044598872336370075  1.0000
  O   O4        1.0  0.9831244817280166  0.0995663519844036  0.5928719387738819  1.0000
  O   O5        1.0  0.6481697720874325  0.30106280448570594  0.5896569122191151  1.0000
  Ca  Ca1       1.0  0.4599777237149537  0.5179281885886949  0.36219162217911377  1.0000
  O   O6        1.0  0.12931167510485556  0.985785715257823  0.00813846336541409  1.0000
