data_image0
_chemical_formula_structural       TiCa2O5SiO
_chemical_formula_sum              "Ti1 Ca2 O6 Si1"
_cell_length_a       5.2860209517124
_cell_length_b       5.2855085333065315
_cell_length_c       5.288046836853027
_cell_angle_alpha    60.18026492601484
_cell_angle_beta     60.17887913041455
_cell_angle_gamma    60.191412651870436

_space_group_name_H-M_alt    "P 1"
_space_group_IT_number       1

loop_
  _space_group_symop_operation_xyz
  'x, y, z'

loop_
  _atom_site_type_symbol
  _atom_site_label
  _atom_site_symmetry_multiplicity
  _atom_site_fract_x
  _atom_site_fract_y
  _atom_site_fract_z
  _atom_site_occupancy
  Ti  Ti1       1.0  0.4076123810990479  0.5660517119109705  0.9893599325134882  1.0000
  Ca  Ca1       1.0  0.15674459916535208  0.3155440974430112  0.7380447773120339  1.0000
  Ca  Ca2       1.0  0.6583151836727379  0.8166039197700552  0.24035722069439286  1.0000
  O   O1        1.0  0.7154612391922779  0.3049734687877355  0.20351619420246603  1.0000
  O   O2        1.0  0.6692175761508614  0.35059652757970927  0.6826883564740132  1.0000
  O   O3        1.0  0.19321793774801724  0.25843290610214403  0.25268448024275425  1.0000
  O   O4        1.0  0.6220001549303925  0.8736756984030879  0.7258283118095187  1.0000
  O   O5        1.0  0.14602904262506725  0.7814611009488686  0.2958549861110856  1.0000
  Si  Si1       1.0  0.9075951475443751  0.06609798274189636  0.4891304223411892  1.0000
  O   O6        1.0  0.09973119807104439  0.8270980361939606  0.7749530186342012  1.0000
