data_image0
_chemical_formula_structural       TiCaOCaSi2Ti
_chemical_formula_sum              "Ti2 Ca2 O1 Si2"
_cell_length_a       4.105148765608541
_cell_length_b       4.104725950534074
_cell_length_c       8.387646675109863
_cell_angle_alpha    104.07562188438392
_cell_angle_beta     104.10181602821314
_cell_angle_gamma    89.92868874287065

_space_group_name_H-M_alt    "P 1"
_space_group_IT_number       1

loop_
  _space_group_symop_operation_xyz
  'x, y, z'

loop_
  _atom_site_type_symbol
  _atom_site_label
  _atom_site_symmetry_multiplicity
  _atom_site_fract_x
  _atom_site_fract_y
  _atom_site_fract_z
  _atom_site_occupancy
  Ti  Ti1       1.0  0.8407711964721107  0.8142920677678825  0.0016303406291752129  1.0000
  Ca  Ca1       1.0  0.007696016842029075  0.4810178359823673  0.33617327532995234  1.0000
  O   O1        1.0  0.8407877095376256  0.31427717030708935  0.001638063778162912  1.0000
  Ca  Ca2       1.0  0.6738650265875341  0.14746077501459745  0.6669726408295777  1.0000
  Si  Si1       1.0  0.456107892013577  0.9294891325660892  0.23300354031466228  1.0000
  Si  Si2       1.0  0.22546377505860238  0.6990434661624213  0.7702692971637839  1.0000
  Ti  Ti2       1.0  0.34084211057855673  0.31427067988170604  0.0016295377457259833  1.0000
