data_image0
_chemical_formula_structural       TiOCa2OSiO4
_chemical_formula_sum              "Ti1 O6 Ca2 Si1"
_cell_length_a       5.267611136704033
_cell_length_b       5.268381669440565
_cell_length_c       5.270794868469239
_cell_angle_alpha    60.30445199279459
_cell_angle_beta     60.27004292186762
_cell_angle_gamma    60.24535658887391

_space_group_name_H-M_alt    "P 1"
_space_group_IT_number       1

loop_
  _space_group_symop_operation_xyz
  'x, y, z'

loop_
  _atom_site_type_symbol
  _atom_site_label
  _atom_site_symmetry_multiplicity
  _atom_site_fract_x
  _atom_site_fract_y
  _atom_site_fract_z
  _atom_site_occupancy
  Ti  Ti1       1.0  0.40495624992748847  0.15043766870442377  0.019452170748444252  1.0000
  O   O1        1.0  0.09849308865185617  0.9350055884566463  0.28196187633329894  1.0000
  Ca  Ca1       1.0  0.655681111588501  0.4010549790849067  0.27025998282692637  1.0000
  Ca  Ca2       1.0  0.15451434131175026  0.8995663819478715  0.7686265173454051  1.0000
  O   O2        1.0  0.6673686038587469  0.8428117514159126  0.8046273548947557  1.0000
  Si  Si1       1.0  0.9049328329633413  0.6503872483249146  0.5194522968758305  1.0000
  O   O3        1.0  0.19018285244152053  0.41140740528068487  0.7123948670098992  1.0000
  O   O4        1.0  0.7116530117618259  0.36568042314505556  0.7566093721771546  1.0000
  O   O5        1.0  0.620026546298098  0.889124570998077  0.32639637639849955  1.0000
  O   O6        1.0  0.14276172612939567  0.4577505653521391  0.2340840379012912  1.0000
