data_image0
_chemical_formula_structural       SiOCaSiCaOCaO6TiO2SiO
_chemical_formula_sum              "Si3 O11 Ca3 Ti1"
_cell_length_a       5.350584987536213
_cell_length_b       6.383208274492612
_cell_length_c       7.588626861572265
_cell_angle_alpha    90.64681458439127
_cell_angle_beta     97.08493688783946
_cell_angle_gamma    96.86102302907865

_space_group_name_H-M_alt    "P 1"
_space_group_IT_number       1

loop_
  _space_group_symop_operation_xyz
  'x, y, z'

loop_
  _atom_site_type_symbol
  _atom_site_label
  _atom_site_symmetry_multiplicity
  _atom_site_fract_x
  _atom_site_fract_y
  _atom_site_fract_z
  _atom_site_occupancy
  Si  Si1       1.0  0.2535404712104839  0.28703327224232156  0.054524609715276944  1.0000
  O   O1        1.0  0.06417285178358383  0.05036347506504609  0.4271329501377248  1.0000
  Ca  Ca1       1.0  0.6434164622087569  0.3953157528303843  0.7329241974216959  1.0000
  Si  Si2       1.0  0.8151314964113476  0.9560011910482051  0.8933118598685306  1.0000
  Ca  Ca2       1.0  0.24429985203014873  0.8148092623421765  0.6152948005641596  1.0000
  O   O2        1.0  0.7613242226376429  0.3087413814389729  0.4373471863739847  1.0000
  Ca  Ca3       1.0  0.21980867547157432  0.7426510137802811  0.11363137931842336  1.0000
  O   O3        1.0  0.8152557440454459  0.8960639841102886  0.10614587566012665  1.0000
  O   O4        1.0  0.013638018376206797  0.18552353596256352  0.9037017327951844  1.0000
  O   O5        1.0  0.40904038300636164  0.09937286749424679  0.13765294060744776  1.0000
  O   O6        1.0  0.25669420466852205  0.4536447120399449  0.5755890260319378  1.0000
  O   O7        1.0  0.5114386981484192  0.8193277575749977  0.39103282489582325  1.0000
  O   O8        1.0  0.4119588036470583  0.48291159496842906  0.9709060374657006  1.0000
  Ti  Ti1       1.0  0.6902096564275507  0.024804388400224725  0.3039316969387872  1.0000
  O   O9        1.0  0.9415249897297571  0.7592174151450508  0.8134007725821827  1.0000
  O   O10       1.0  0.12309151177017864  0.3926661378202718  0.2219701730260377  1.0000
  Si  Si3       1.0  0.07104607430769408  0.3107472670458023  0.4287902689485569  1.0000
  O   O11       1.0  0.558431954537826  0.01953740146629968  0.7839787265745538  1.0000
