data_image0
_chemical_formula_structural       CaTiCaOSiO5
_chemical_formula_sum              "Ca2 Ti1 O6 Si1"
_cell_length_a       5.271694629718359
_cell_length_b       5.270275505161716
_cell_length_c       5.278660774230957
_cell_angle_alpha    90.34966041532648
_cell_angle_beta     119.80038546233001
_cell_angle_gamma    119.8750382387751

_space_group_name_H-M_alt    "P 1"
_space_group_IT_number       1

loop_
  _space_group_symop_operation_xyz
  'x, y, z'

loop_
  _atom_site_type_symbol
  _atom_site_label
  _atom_site_symmetry_multiplicity
  _atom_site_fract_x
  _atom_site_fract_y
  _atom_site_fract_z
  _atom_site_occupancy
  Ca  Ca1       1.0  0.990613783937489  0.9339066056022459  0.42470588689606514  1.0000
  Ti  Ti1       1.0  0.4942720468383557  0.6844499393410861  0.67900928589731  1.0000
  Ca  Ca2       1.0  0.9981176244604191  0.435008409516156  0.9332477847763632  1.0000
  O   O1        1.0  0.49510141797758783  0.45317446000119593  0.9693144165280116  1.0000
  Si  Si1       1.0  0.49427218621255115  0.18443393879135672  0.1789744233174461  1.0000
  O   O2        1.0  0.4393718528322416  0.9459808832172691  0.8852113424178046  1.0000
  O   O3        1.0  0.5490733465476633  0.4228104751538723  0.47284099879038205  1.0000
  O   O4        1.0  0.9725481989291332  0.39549092651655554  0.3889109748947763  1.0000
  O   O5        1.0  0.4933829191413202  0.9156577539120259  0.3886375756835751  1.0000
  O   O6        1.0  0.015967827452704784  0.9735617182181581  0.969150724094816  1.0000
