data_image0
_chemical_formula_structural       OSiOTi2O4
_chemical_formula_sum              "O6 Si1 Ti2"
_cell_length_a       4.3315344724828515
_cell_length_b       4.813902441373758
_cell_length_c       4.812686443328857
_cell_angle_alpha    120.1160917183441
_cell_angle_beta     90.04795726083077
_cell_angle_gamma    89.9786376719794

_space_group_name_H-M_alt    "P 1"
_space_group_IT_number       1

loop_
  _space_group_symop_operation_xyz
  'x, y, z'

loop_
  _atom_site_type_symbol
  _atom_site_label
  _atom_site_symmetry_multiplicity
  _atom_site_fract_x
  _atom_site_fract_y
  _atom_site_fract_z
  _atom_site_occupancy
  O   O1        1.0  0.13766588695839058  0.11149254617042678  0.2633227731771775  1.0000
  Si  Si1       1.0  0.9032725757301541  0.8019424110610802  0.9502179527013833  1.0000
  O   O2        1.0  0.669011810522132  0.8056659541086987  0.26304524826394005  1.0000
  Ti  Ti1       1.0  0.9029494054286817  0.4689070811600449  0.2834277987026002  1.0000
  Ti  Ti2       1.0  0.40292417537099806  0.13541261998115453  0.6168355664931094  1.0000
  O   O3        1.0  0.6689554464221066  0.48889668551520293  0.6404731962479511  1.0000
  O   O4        1.0  0.6688660089491366  0.11127055269822664  0.9465589776286243  1.0000
  O   O5        1.0  0.13768185704223046  0.8056724583025849  0.6409358866687497  1.0000
  O   O6        1.0  0.13764999782833692  0.4889921188663269  0.9464672981898802  1.0000
