data_image0
_chemical_formula_structural       CaSi2OTiO6
_chemical_formula_sum              "Ca1 Si2 O7 Ti1"
_cell_length_a       4.654832691282151
_cell_length_b       5.3975076248322384
_cell_length_c       5.400164604187012
_cell_angle_alpha    102.27649586559258
_cell_angle_beta     96.6038463579146
_cell_angle_gamma    96.59234437381704

_space_group_name_H-M_alt    "P 1"
_space_group_IT_number       1

loop_
  _space_group_symop_operation_xyz
  'x, y, z'

loop_
  _atom_site_type_symbol
  _atom_site_label
  _atom_site_symmetry_multiplicity
  _atom_site_fract_x
  _atom_site_fract_y
  _atom_site_fract_z
  _atom_site_occupancy
  Ca  Ca1       1.0  0.8587852554328108  0.5127222629461254  0.6726531258301701  1.0000
  Si  Si1       1.0  0.2817529391536141  0.44839606106480695  0.16334311002659213  1.0000
  Si  Si2       1.0  0.4367895183654388  0.02147061997324102  0.7364361253379289  1.0000
  O   O1        1.0  0.35931085554701825  0.30792812778439643  0.8769572882725496  1.0000
  Ti  Ti1       1.0  0.8592905593482625  0.9105006935546698  0.2744161637236031  1.0000
  O   O2        1.0  0.652855926470353  0.0934725604039434  0.5333513779325033  1.0000
  O   O3        1.0  0.13301898700114945  0.8498851471884483  0.5865433076302444  1.0000
  O   O4        1.0  0.06572769478832297  0.6516106786523854  0.09142770958032419  1.0000
  O   O5        1.0  0.6213088846293922  0.8997358331706417  0.9508966329195604  1.0000
  O   O6        1.0  0.5855291818675585  0.5982429536392898  0.33484385713111364  1.0000
  O   O7        1.0  0.0972173525967585  0.23380133168545242  0.2849286914089403  1.0000
