data_image0
_chemical_formula_structural       TiCaO2SiO4SiO2
_chemical_formula_sum              "Ti1 Ca1 O8 Si2"
_cell_length_a       5.102188161939129
_cell_length_b       5.105977136387549
_cell_length_c       6.829659938812256
_cell_angle_alpha    90.54259957709937
_cell_angle_beta     90.76835098035488
_cell_angle_gamma    64.24789363390747

_space_group_name_H-M_alt    "P 1"
_space_group_IT_number       1

loop_
  _space_group_symop_operation_xyz
  'x, y, z'

loop_
  _atom_site_type_symbol
  _atom_site_label
  _atom_site_symmetry_multiplicity
  _atom_site_fract_x
  _atom_site_fract_y
  _atom_site_fract_z
  _atom_site_occupancy
  Ti  Ti1       1.0  0.13578115675488173  0.17219486202022255  0.8647951859587215  1.0000
  Ca  Ca1       1.0  0.13575311110957194  0.17210199851148344  0.36480579192151785  1.0000
  O   O1        1.0  0.4028496034014811  0.44543214987850355  0.4170381226953011  1.0000
  O   O2        1.0  0.8687254704972291  0.8986920451128171  0.31262024410920647  1.0000
  Si  Si1       1.0  0.7805593801449353  0.8150134741900585  0.09359490932821041  1.0000
  O   O3        1.0  0.4265414619344079  0.9636179389994944  0.07328882737407583  1.0000
  O   O4        1.0  0.3442767596916228  0.8825323810245186  0.6574136847489451  1.0000
  O   O5        1.0  0.8449632079253299  0.3807057292342053  0.6563745520983976  1.0000
  O   O6        1.0  0.9270748610412001  0.4616762841237539  0.0722158852676372  1.0000
  Si  Si2       1.0  0.49092561538933743  0.5291878156217851  0.6360752891566871  1.0000
  O   O7        1.0  0.9230481237307494  0.958805128651624  0.9409130288710494  1.0000
  O   O8        1.0  0.3486616243623085  0.38530903784312487  0.7888704550497847  1.0000
