data_image0
_chemical_formula_structural       CaSiTiSiOSi2O6CaO6
_chemical_formula_sum              "Ca2 Si4 Ti1 O13"
_cell_length_a       5.0347999579178335
_cell_length_b       5.574521718846573
_cell_length_c       12.695129394531252
_cell_angle_alpha    110.72821269343
_cell_angle_beta     101.69940711621098
_cell_angle_gamma    97.78026981867642

_space_group_name_H-M_alt    "P 1"
_space_group_IT_number       1

loop_
  _space_group_symop_operation_xyz
  'x, y, z'

loop_
  _atom_site_type_symbol
  _atom_site_label
  _atom_site_symmetry_multiplicity
  _atom_site_fract_x
  _atom_site_fract_y
  _atom_site_fract_z
  _atom_site_occupancy
  Ca  Ca1       1.0  0.7176766085411744  0.6550713314228219  0.04313926768757125  1.0000
  Si  Si1       1.0  0.7667495084696645  0.01880605207186557  0.909897386454378  1.0000
  Ti  Ti1       1.0  0.35360884733666736  0.21860241770630967  0.4290250228352084  1.0000
  Si  Si2       1.0  0.6960875604991785  0.8998337364469879  0.2870401945904853  1.0000
  O   O1        1.0  0.4835497698726958  0.40485441774499953  0.36466946325517346  1.0000
  Si  Si3       1.0  0.23059768930708963  0.08271857022861619  0.7834568170657659  1.0000
  Si  Si4       1.0  0.3836069931802137  0.5447419224966015  0.7076849348410111  1.0000
  O   O2        1.0  0.4840933363827083  0.9229244466677464  0.16557837553863824  1.0000
  O   O3        1.0  0.20969961948702448  0.28744193769853477  0.7191061312615428  1.0000
  O   O4        1.0  0.7979481796602879  0.6332274308073809  0.22639295307156218  1.0000
  O   O5        1.0  0.21227589473000258  0.7755865423938965  0.700654072516193  1.0000
  O   O6        1.0  0.9686136964646463  0.14979862812105335  0.3501638711293108  1.0000
  O   O7        1.0  0.9755266678169917  0.10246925686170534  0.841574128299788  1.0000
  Ca  Ca2       1.0  0.15771547349227077  0.4274232874703649  0.2203056698234614  1.0000
  O   O8        1.0  0.4858814243606854  0.9059645765491668  0.3711661648226174  1.0000
  O   O9        1.0  0.6223660089037709  0.6975583990499051  0.8374285081380047  1.0000
  O   O10       1.0  0.28188813922364625  0.655143520545289  0.09502176239987253  1.0000
  O   O11       1.0  0.48844803950381743  0.4303333932958663  0.5931266264590123  1.0000
  O   O12       1.0  0.5228005695839528  0.18813985823052068  0.8913857566964224  1.0000
  O   O13       1.0  0.8931073971259076  0.07422769985869591  0.04336044719918351  1.0000
