data_image0
_chemical_formula_structural       CaTiSi2O2SiTiSiO
_chemical_formula_sum              "Ca1 Ti2 Si4 O3"
_cell_length_a       3.5199794000214495
_cell_length_b       5.372579781095366
_cell_length_c       7.587637901306153
_cell_angle_alpha    100.25068913667411
_cell_angle_beta     89.9279371827371
_cell_angle_gamma    90.05073031798172

_space_group_name_H-M_alt    "P 1"
_space_group_IT_number       1

loop_
  _space_group_symop_operation_xyz
  'x, y, z'

loop_
  _atom_site_type_symbol
  _atom_site_label
  _atom_site_symmetry_multiplicity
  _atom_site_fract_x
  _atom_site_fract_y
  _atom_site_fract_z
  _atom_site_occupancy
  Ca  Ca1       1.0  0.2728565594631037  0.03122638980594215  0.43438825522772967  1.0000
  Ti  Ti1       1.0  0.7728536417339215  0.4662256458587174  0.18025072502296283  1.0000
  Si  Si1       1.0  0.7730808897769867  0.2832385492399249  0.7981001787769797  1.0000
  Si  Si2       1.0  0.7727111053044422  0.5744982741977025  0.5666987624954549  1.0000
  O   O1        1.0  0.7728994157619489  0.30938322689851716  0.4106019539394112  1.0000
  O   O2        1.0  0.7728636890585161  0.7582254613307959  0.40529998301424713  1.0000
  Si  Si3       1.0  0.7727017393670431  0.9110633742128532  0.06638045080869621  1.0000
  Ti  Ti2       1.0  0.2730486273249388  0.6340771287187412  0.8942746199514338  1.0000
  Si  Si4       1.0  0.27297256171409223  0.1716114840845036  0.98942928747191  1.0000
  O   O3        1.0  0.27242809264898965  0.6555323168097619  0.6237195515610883  1.0000
