data_image0
_chemical_formula_structural       TiCaSiO2SiTiO5
_chemical_formula_sum              "Ti2 Ca1 Si2 O7"
_cell_length_a       3.3170019629010987
_cell_length_b       5.255500238957469
_cell_length_c       8.111077308654785
_cell_angle_alpha    108.07469743770959
_cell_angle_beta     101.83705507442431
_cell_angle_gamma    89.99744811947471

_space_group_name_H-M_alt    "P 1"
_space_group_IT_number       1

loop_
  _space_group_symop_operation_xyz
  'x, y, z'

loop_
  _atom_site_type_symbol
  _atom_site_label
  _atom_site_symmetry_multiplicity
  _atom_site_fract_x
  _atom_site_fract_y
  _atom_site_fract_z
  _atom_site_occupancy
  Ti  Ti1       1.0  0.7306190045657188  0.18908899690347816  0.628084192008746  1.0000
  Ca  Ca1       1.0  0.3537634498579092  0.7906697791788511  0.8743450506414557  1.0000
  Si  Si1       1.0  0.06636161703162602  0.9872818552668942  0.29915535482414535  1.0000
  O   O1        1.0  0.14875089510626155  0.3124352803773027  0.4634745509709514  1.0000
  O   O2        1.0  0.8527280152774367  0.46743071665361763  0.8726158817071608  1.0000
  Si  Si2       1.0  0.9429816692544322  0.3565271548960575  0.052766323115322915  1.0000
  Ti  Ti2       1.0  0.6374186402153312  0.5925295885865689  0.4409759028949482  1.0000
  O   O3        1.0  0.7618545680540072  0.8646548541735437  0.6906872869659979  1.0000
  O   O4        1.0  0.43549183046409884  0.29967434465006726  0.03782781960094561  1.0000
  O   O5        1.0  0.040524513939017646  0.6200652190422687  0.2475212979074022  1.0000
  O   O6        1.0  0.9676017842103584  0.026212172597675568  0.10185192457730197  1.0000
  O   O7        1.0  0.5937416744397293  0.9619021985974628  0.3537042036421921  1.0000
