data_image0
_chemical_formula_structural       CaSi3O3CaOCaO2TiO3SiO3
_chemical_formula_sum              "Ca3 Si4 O12 Ti1"
_cell_length_a       5.149771734042878
_cell_length_b       7.319676340246921
_cell_length_c       8.032896995544434
_cell_angle_alpha    75.38535754293542
_cell_angle_beta     88.23100386404299
_cell_angle_gamma    85.52582592584227

_space_group_name_H-M_alt    "P 1"
_space_group_IT_number       1

loop_
  _space_group_symop_operation_xyz
  'x, y, z'

loop_
  _atom_site_type_symbol
  _atom_site_label
  _atom_site_symmetry_multiplicity
  _atom_site_fract_x
  _atom_site_fract_y
  _atom_site_fract_z
  _atom_site_occupancy
  Ca  Ca1       1.0  0.7426672324851109  0.21784277857638173  0.5790291273480365  1.0000
  Si  Si1       1.0  0.742037331963109  0.09123115159994294  0.23303283873641426  1.0000
  Si  Si2       1.0  0.2105546388354847  0.48316176661626037  0.6932477128835108  1.0000
  Si  Si3       1.0  0.6908724438627099  0.4611082954057372  0.9200157562203725  1.0000
  O   O1        1.0  0.5103045357367612  0.09844589238175744  0.3734950441136685  1.0000
  O   O2        1.0  0.3939400639170536  0.5319129476256175  0.8447082543121045  1.0000
  O   O3        1.0  0.9044952991539286  0.44061961231068  0.7685417811244745  1.0000
  Ca  Ca2       1.0  0.109154692554483  0.8514398616351665  0.9470187836357478  1.0000
  O   O4        1.0  0.6726153946822058  0.25311128306644615  0.05126160666125689  1.0000
  Ca  Ca3       1.0  0.22139586879778  0.412897248008158  0.3346130648738843  1.0000
  O   O5        1.0  0.3183204206325064  0.2977912422805462  0.6320675967865004  1.0000
  O   O6        1.0  0.7863485839003936  0.886879895123873  0.1716386222099707  1.0000
  Ti  Ti1       1.0  0.21764254495875507  0.9296710301725932  0.49652171427020486  1.0000
  O   O7        1.0  0.004286999173417572  0.1396954207828329  0.315784826027078  1.0000
  O   O8        1.0  0.7671594519157396  0.5031826144141796  0.35363102787510386  1.0000
  O   O9        1.0  0.006082070336155106  0.95899079274449  0.679623464045444  1.0000
  Si  Si4       1.0  0.6659651278635063  0.6742089606369323  0.19509782788506633  1.0000
  O   O10       1.0  0.35817795842098465  0.6897109074576966  0.16299426982764442  1.0000
  O   O11       1.0  0.2019299499813147  0.6588444596627885  0.5262193903633768  1.0000
  O   O12       1.0  0.8004483165027617  0.6181773626708107  0.012883261511768463  1.0000
