data_image0
_chemical_formula_structural       Ca2OTiO5Si
_chemical_formula_sum              "Ca2 O6 Ti1 Si1"
_cell_length_a       5.279678878822716
_cell_length_b       5.284661094440631
_cell_length_c       5.282067775726318
_cell_angle_alpha    60.01131049712632
_cell_angle_beta     60.002632412392245
_cell_angle_gamma    60.0173089009917

_space_group_name_H-M_alt    "P 1"
_space_group_IT_number       1

loop_
  _space_group_symop_operation_xyz
  'x, y, z'

loop_
  _atom_site_type_symbol
  _atom_site_label
  _atom_site_symmetry_multiplicity
  _atom_site_fract_x
  _atom_site_fract_y
  _atom_site_fract_z
  _atom_site_occupancy
  Ca  Ca1       1.0  0.5251771587338385  0.6265647184070686  0.1130249925669487  1.0000
  Ca  Ca2       1.0  0.025203583400797754  0.12588595096455368  0.6134203710988978  1.0000
  O   O1        1.0  0.5357928615612173  0.6372409028195954  0.6025453827368102  1.0000
  Ti  Ti1       1.0  0.2750429050408535  0.3763388154794241  0.8632224991278641  1.0000
  O   O2        1.0  0.5361371552132552  0.1154375136429399  0.6024445323609358  1.0000
  O   O3        1.0  0.5360137330854285  0.11543896892415292  0.12392586119639679  1.0000
  O   O4        1.0  0.014283392591274284  0.6370954836031606  0.6024885897749903  1.0000
  O   O5        1.0  0.014207431598727551  0.6370552781742446  0.124083766306666  1.0000
  O   O6        1.0  0.014534623792356049  0.11525586205541889  0.12396521964799309  1.0000
  Si  Si1       1.0  0.7750748262205455  0.8763047735069598  0.3632277467635911  1.0000
