data_image0
_chemical_formula_structural       OTiO2SiCaOSiO3
_chemical_formula_sum              "O7 Ti1 Si2 Ca1"
_cell_length_a       4.645359830289116
_cell_length_b       5.401120428700487
_cell_length_c       5.403926372528076
_cell_angle_alpha    102.83304084613367
_cell_angle_beta     96.98546271002695
_cell_angle_gamma    96.9342640284303

_space_group_name_H-M_alt    "P 1"
_space_group_IT_number       1

loop_
  _space_group_symop_operation_xyz
  'x, y, z'

loop_
  _atom_site_type_symbol
  _atom_site_label
  _atom_site_symmetry_multiplicity
  _atom_site_fract_x
  _atom_site_fract_y
  _atom_site_fract_z
  _atom_site_occupancy
  O   O1        1.0  0.5820046186400775  0.13080983834196946  0.1734249467078607  1.0000
  Ti  Ti1       1.0  0.3772798299144795  0.39047384927415085  0.3583054324772286  1.0000
  O   O2        1.0  0.6511301317889912  0.3299480130153939  0.6668602382450796  1.0000
  O   O3        1.0  0.6151989384985227  0.716273633078493  0.37009535072391514  1.0000
  Si  Si1       1.0  0.7975880905095477  0.9289692553794493  0.2464214027769415  1.0000
  Ca  Ca1       1.0  0.37783160993413184  0.9946990206398453  0.7538440315166473  1.0000
  O   O4        1.0  0.13945036678965048  0.378834045877656  0.03264798118308321  1.0000
  Si  Si2       1.0  0.9571112975145666  0.5024732630541467  0.8197691669087068  1.0000
  O   O5        1.0  0.877014021435189  0.7874236073995345  0.9612875949884098  1.0000
  O   O6        1.0  0.1725753167604705  0.5754197633860507  0.6180893296343213  1.0000
  O   O7        1.0  0.103727653347346  0.08171655150884477  0.41874291129497354  1.0000
