data_image0
_chemical_formula_structural       SiO6TiOSiCaO
_chemical_formula_sum              "Si2 O8 Ti1 Ca1"
_cell_length_a       5.265418769020272
_cell_length_b       5.251459324061979
_cell_length_c       8.030640602111816
_cell_angle_alpha    69.81200533049108
_cell_angle_beta     70.0063379073751
_cell_angle_gamma    61.22962798062004

_space_group_name_H-M_alt    "P 1"
_space_group_IT_number       1

loop_
  _space_group_symop_operation_xyz
  'x, y, z'

loop_
  _atom_site_type_symbol
  _atom_site_label
  _atom_site_symmetry_multiplicity
  _atom_site_fract_x
  _atom_site_fract_y
  _atom_site_fract_z
  _atom_site_occupancy
  Si  Si1       1.0  0.0606769293789641  0.3203475651009692  0.1742039815441719  1.0000
  O   O1        1.0  0.6068403065497829  0.6629923049290036  0.7241267893914017  1.0000
  O   O2        1.0  0.20707436056032855  0.959336556486025  0.27288243626303976  1.0000
  O   O3        1.0  0.8878760522178305  0.07996961492312299  0.7650689560813442  1.0000
  O   O4        1.0  0.43627044712268487  0.9276820028375304  0.8043072053377339  1.0000
  O   O5        1.0  0.03487952773813868  0.3828158539695862  0.973396215675815  1.0000
  O   O6        1.0  0.2192236210548308  0.48841428857376606  0.5308120020425381  1.0000
  Ti  Ti1       1.0  0.0747900161186174  0.26415683753255736  0.7677632850356289  1.0000
  O   O7        1.0  0.7142082434409605  0.4407757342781362  0.29887725822669436  1.0000
  Si  Si2       1.0  0.350242498147769  0.5915854257480503  0.31737827077267294  1.0000
  Ca  Ca1       1.0  0.7868449127227692  0.9939165480628523  0.5618018756614127  1.0000
  O   O8        1.0  0.24789645673199212  0.47472915418898187  0.19820841152965804  1.0000
