data_image0
_chemical_formula_structural       CaSiO2TiO4
_chemical_formula_sum              "Ca1 Si1 O6 Ti1"
_cell_length_a       4.212036396436938
_cell_length_b       5.122619227257765
_cell_length_c       5.138398170471191
_cell_angle_alpha    119.86289351006361
_cell_angle_beta     90.1860158687728
_cell_angle_gamma    90.09693656459996

_space_group_name_H-M_alt    "P 1"
_space_group_IT_number       1

loop_
  _space_group_symop_operation_xyz
  'x, y, z'

loop_
  _atom_site_type_symbol
  _atom_site_label
  _atom_site_symmetry_multiplicity
  _atom_site_fract_x
  _atom_site_fract_y
  _atom_site_fract_z
  _atom_site_occupancy
  Ca  Ca1       1.0  0.784491104110286  0.2842578532729538  0.8167940836064511  1.0000
  Si  Si1       1.0  0.7830925295800085  0.6215058947789212  0.4767665575257241  1.0000
  O   O1        1.0  0.5540155204127992  0.8681655647654299  0.7861253401174635  1.0000
  O   O2        1.0  0.023113434281511448  0.8912163035596983  0.43790266820883084  1.0000
  Ti  Ti1       1.0  0.2827692869335995  0.9332483882918304  0.16898890037785677  1.0000
  O   O3        1.0  0.017153642846631588  0.6790770206862244  0.8030292459154794  1.0000
  O   O4        1.0  0.5414660513068117  0.6598225554014882  0.2089615546634241  1.0000
  O   O5        1.0  0.5517357131405667  0.29492490820147343  0.42134981720091286  1.0000
  O   O6        1.0  0.015160345582326429  0.3137728543125818  0.23097320264267313  1.0000
