data_image0
_chemical_formula_structural       CaSiCaO2TiO3SiO2TiO4
_chemical_formula_sum              "Ca2 Si2 O11 Ti2"
_cell_length_a       5.581046328050945
_cell_length_b       5.522047055578612
_cell_length_c       7.222920894622804
_cell_angle_alpha    102.9805587461808
_cell_angle_beta     106.36174196850905
_cell_angle_gamma    104.9847342459821

_space_group_name_H-M_alt    "P 1"
_space_group_IT_number       1

loop_
  _space_group_symop_operation_xyz
  'x, y, z'

loop_
  _atom_site_type_symbol
  _atom_site_label
  _atom_site_symmetry_multiplicity
  _atom_site_fract_x
  _atom_site_fract_y
  _atom_site_fract_z
  _atom_site_occupancy
  Ca  Ca1       1.0  0.7879304804017593  0.22593344603933496  0.7272966043035899  1.0000
  Si  Si1       1.0  0.4358006810778094  0.5879308120651067  0.7469790724734696  1.0000
  Ca  Ca2       1.0  0.4339715698721579  0.5558498599534547  0.22878156712973088  1.0000
  O   O1        1.0  0.026985458352461442  0.9397265553285565  0.7224489197137767  1.0000
  O   O2        1.0  0.23360319244733183  0.5863448258005217  0.8777551755998163  1.0000
  Ti  Ti1       1.0  0.13580425291109313  0.9188457158605258  0.4810932268126923  1.0000
  O   O3        1.0  0.6941067671094135  0.4349029300589181  0.47836197991095736  1.0000
  O   O4        1.0  0.4272105714702828  0.797955958063247  0.6180887402095353  1.0000
  O   O5        1.0  0.7979274600042282  0.9736459388299887  0.34048077018013195  1.0000
  Si  Si2       1.0  0.7834341205624163  0.1760963564288357  0.2065380907412079  1.0000
  O   O6        1.0  0.19400298854900197  0.8344124559110454  0.24307626527683468  1.0000
  O   O7        1.0  0.9918224708323022  0.19786187897647484  0.08410280744576133  1.0000
  Ti  Ti2       1.0  0.1065361303089901  0.8862113612327872  0.9676776866461593  1.0000
  O   O8        1.0  0.4840429941906908  0.13786313995863503  0.06328964152668522  1.0000
  O   O9        1.0  0.8927605819603364  0.48931695356634775  0.3778054540353115  1.0000
  O   O10       1.0  0.3399381146594417  0.280070017573468  0.5949843033146693  1.0000
  O   O11       1.0  0.7379845250069391  0.6424992335591626  0.9011221568571426  1.0000
