data_image0
_chemical_formula_structural       CaSiTi2SiOSiO11
_chemical_formula_sum              "Ca1 Si3 Ti2 O12"
_cell_length_a       5.462766101161964
_cell_length_b       7.8010051757917775
_cell_length_c       7.756497859954833
_cell_angle_alpha    72.95562673976146
_cell_angle_beta     67.90391628488668
_cell_angle_gamma    68.39015024625074

_space_group_name_H-M_alt    "P 1"
_space_group_IT_number       1

loop_
  _space_group_symop_operation_xyz
  'x, y, z'

loop_
  _atom_site_type_symbol
  _atom_site_label
  _atom_site_symmetry_multiplicity
  _atom_site_fract_x
  _atom_site_fract_y
  _atom_site_fract_z
  _atom_site_occupancy
  Ca  Ca1       1.0  0.9922760786806918  0.8223570885087226  0.09003888391497118  1.0000
  Si  Si1       1.0  0.6412350050890376  0.7887364926301975  0.7776619559035907  1.0000
  Ti  Ti1       1.0  0.9841418471111982  0.45649362495359264  0.47432155512899926  1.0000
  Ti  Ti2       1.0  0.3300531467467094  0.13295470299630976  0.16761475448012014  1.0000
  Si  Si2       1.0  0.48403423886668434  0.22689274115862212  0.7140623045536777  1.0000
  O   O1        1.0  0.8592444031331993  0.6564313430842633  0.6259468324924753  1.0000
  Si  Si3       1.0  0.4952791451658661  0.682060840994937  0.21552330270349787  1.0000
  O   O2        1.0  0.6728291623330177  0.08925192818487747  0.15253506692248137  1.0000
  O   O3        1.0  0.7174322513835768  0.6308574708684594  0.32758222531040104  1.0000
  O   O4        1.0  0.7006320786082557  0.3475047128875145  0.6542591324985464  1.0000
  O   O5        1.0  0.7028313682328275  0.7075329730076617  0.9871560154223074  1.0000
  O   O6        1.0  0.2758573384283835  0.895514662650969  0.22349357613229076  1.0000
  O   O7        1.0  0.2809704225578055  0.5642584236255785  0.26093890461880415  1.0000
  O   O8        1.0  0.2721123491646892  0.31429241089520377  0.5881550937630631  1.0000
  O   O9        1.0  0.328119895428944  0.7941855306386941  0.8084362679967648  1.0000
  O   O10       1.0  0.28948186576638013  0.24029941167326271  0.930056434880707  1.0000
  O   O11       1.0  0.6636655266677052  0.00507411101140291  0.7028110433318676  1.0000
  O   O12       1.0  0.0712656694156319  0.27439923436769215  0.33647166197375117  1.0000
