data_image0
_chemical_formula_structural       SiOCaSi
_chemical_formula_sum              "Si2 O1 Ca1"
_cell_length_a       3.7630130299390037
_cell_length_b       3.767195114429767
_cell_length_c       6.28798532485962
_cell_angle_alpha    72.62029956912806
_cell_angle_beta     72.6338082797942
_cell_angle_gamma    60.006143901232875

_space_group_name_H-M_alt    "P 1"
_space_group_IT_number       1

loop_
  _space_group_symop_operation_xyz
  'x, y, z'

loop_
  _atom_site_type_symbol
  _atom_site_label
  _atom_site_symmetry_multiplicity
  _atom_site_fract_x
  _atom_site_fract_y
  _atom_site_fract_z
  _atom_site_occupancy
  Si  Si1       1.0  0.22340303853437238  0.4346294735645315  0.8340159087981961  1.0000
  O   O1        1.0  0.3184063452485164  0.5303997681519655  0.54836803864137  1.0000
  Ca  Ca1       1.0  0.7036241628921078  0.9161951052399517  0.3914111836930765  1.0000
  Si  Si2       1.0  0.5013587409189247  0.7130643032563964  0.9998426350555157  1.0000
