data_image0
_chemical_formula_structural       CaTiSiO
_chemical_formula_sum              "Ca1 Ti1 Si1 O1"
_cell_length_a       3.1807833912869663
_cell_length_b       3.182822704065198
_cell_length_c       7.128977298736571
_cell_angle_alpha    77.15566083951246
_cell_angle_beta     77.17070869481532
_cell_angle_gamma    60.03446112853562

_space_group_name_H-M_alt    "P 1"
_space_group_IT_number       1

loop_
  _space_group_symop_operation_xyz
  'x, y, z'

loop_
  _atom_site_type_symbol
  _atom_site_label
  _atom_site_symmetry_multiplicity
  _atom_site_fract_x
  _atom_site_fract_y
  _atom_site_fract_z
  _atom_site_occupancy
  Ca  Ca1       1.0  0.8541320063371509  0.8634771953491415  0.45327531582114766  1.0000
  Ti  Ti1       1.0  0.3887620267412498  0.39800758074831355  0.8493388727455238  1.0000
  Si  Si1       1.0  0.6333094730415253  0.642755475371942  0.11584238673434027  1.0000
  O   O1        1.0  0.11806587060390364  0.12742757677081012  0.6617697285365469  1.0000
