data_image0
_chemical_formula_structural       CaSiO2SiTiO5
_chemical_formula_sum              "Ca1 Si2 O7 Ti1"
_cell_length_a       4.65121411170146
_cell_length_b       5.406183264651441
_cell_length_c       5.399480342864991
_cell_angle_alpha    102.23199761677213
_cell_angle_beta     96.61867438311832
_cell_angle_gamma    96.74519008433086

_space_group_name_H-M_alt    "P 1"
_space_group_IT_number       1

loop_
  _space_group_symop_operation_xyz
  'x, y, z'

loop_
  _atom_site_type_symbol
  _atom_site_label
  _atom_site_symmetry_multiplicity
  _atom_site_fract_x
  _atom_site_fract_y
  _atom_site_fract_z
  _atom_site_occupancy
  Ca  Ca1       1.0  0.7345588113156641  0.12846791110987058  0.6608412675927787  1.0000
  Si  Si1       1.0  0.31216530497360934  0.1927417091785721  0.17000419458708987  1.0000
  O   O1        1.0  0.9723514016433995  0.7409124901268955  0.38157437186217563  1.0000
  O   O2        1.0  0.495964121943192  0.4073706822177822  0.04803523080273344  1.0000
  Si  Si2       1.0  0.15615438926515177  0.6192254064614762  0.596159437077607  1.0000
  Ti  Ti1       1.0  0.7341240970636848  0.7309401341790339  0.05835690311708597  1.0000
  O   O3        1.0  0.5281973206181395  0.9901503532343573  0.24199155455540622  1.0000
  O   O4        1.0  0.9398807863022021  0.5474731875085758  0.7992996466462272  1.0000
  O   O5        1.0  0.46025369547042577  0.790945179318894  0.7465688974032827  1.0000
  O   O6        1.0  0.23355040638808222  0.3333403961144139  0.4557019430619587  1.0000
  O   O7        1.0  0.00820138041165372  0.042327692166045414  0.9980317107956947  1.0000
