data_image0
_chemical_formula_structural       Ca2TiO2TiOCaO4SiO3
_chemical_formula_sum              "Ca3 Ti2 O10 Si1"
_cell_length_a       5.600520568994388
_cell_length_b       6.49062023742144
_cell_length_c       6.943795204162597
_cell_angle_alpha    105.67831819722579
_cell_angle_beta     99.9844752684175
_cell_angle_gamma    98.89332619623994

_space_group_name_H-M_alt    "P 1"
_space_group_IT_number       1

loop_
  _space_group_symop_operation_xyz
  'x, y, z'

loop_
  _atom_site_type_symbol
  _atom_site_label
  _atom_site_symmetry_multiplicity
  _atom_site_fract_x
  _atom_site_fract_y
  _atom_site_fract_z
  _atom_site_occupancy
  Ca  Ca1       1.0  0.12089927278515694  0.7499254013934531  0.4473214161812814  1.0000
  Ca  Ca2       1.0  0.4760281260822213  0.30253638352469003  0.9939789993453655  1.0000
  Ti  Ti1       1.0  0.6570870801501187  0.9082552476451567  0.20653777155696054  1.0000
  O   O1        1.0  0.7512617655631395  0.0014355015908213296  0.975048659389464  1.0000
  O   O2        1.0  0.8662274167978428  0.007087240611050365  0.4696162895475696  1.0000
  Ti  Ti2       1.0  0.9011146901815326  0.09853370779623767  0.7694513002815826  1.0000
  O   O3        1.0  0.34963087176291063  0.7784696229850513  0.2030699058084607  1.0000
  Ca  Ca3       1.0  0.0260439725830954  0.6955633241311487  0.9237177761599504  1.0000
  O   O4        1.0  0.16412350771947304  0.9585122592125613  0.7912063924185098  1.0000
  O   O5        1.0  0.09108402225241395  0.35951427943811703  0.8916035179269766  1.0000
  O   O6        1.0  0.5287211175803777  0.2084204421725845  0.2854091191506064  1.0000
  O   O7        1.0  0.8056279437487665  0.5641891723161513  0.5753654169310363  1.0000
  Si  Si1       1.0  0.562371367654937  0.3631670290844846  0.5177545010210525  1.0000
  O   O8        1.0  0.7778750432979104  0.6505869127333184  0.13976642240511034  1.0000
  O   O9        1.0  0.35884535063893735  0.5193587175952894  0.5449188047356007  1.0000
  O   O10       1.0  0.5838479192835098  0.23115353369106542  0.6864603286671556  1.0000
