data_image0
_chemical_formula_structural       TiSiCaSiO8
_chemical_formula_sum              "Ti1 Si2 Ca1 O8"
_cell_length_a       5.118635154789092
_cell_length_b       5.127204499835611
_cell_length_c       6.875235557556153
_cell_angle_alpha    90.02674269487366
_cell_angle_beta     89.88953101683619
_cell_angle_gamma    63.90161659327156

_space_group_name_H-M_alt    "P 1"
_space_group_IT_number       1

loop_
  _space_group_symop_operation_xyz
  'x, y, z'

loop_
  _atom_site_type_symbol
  _atom_site_label
  _atom_site_symmetry_multiplicity
  _atom_site_fract_x
  _atom_site_fract_y
  _atom_site_fract_z
  _atom_site_occupancy
  Ti  Ti1       1.0  0.689564641411726  0.7546666816168442  0.5386910877331659  1.0000
  Si  Si1       1.0  0.04624295583814362  0.11079144500856117  0.310865601762803  1.0000
  Ca  Ca1       1.0  0.6893358276125932  0.7546342906890627  0.038726880247868856  1.0000
  Si  Si2       1.0  0.33218810743143046  0.39794464315968  0.766621051404016  1.0000
  O   O1        1.0  0.4805370959997909  0.04471506152022757  0.7462808082234771  1.0000
  O   O2        1.0  0.4178955970371487  0.48606511317711154  0.9819460355357238  1.0000
  O   O3        1.0  0.9021709913789452  0.9667070846080706  0.46286953856365587  1.0000
  O   O4        1.0  0.961126708201442  0.023059984776698367  0.09525549983272379  1.0000
  O   O5        1.0  0.47637790986231554  0.542314227234796  0.6149919398503306  1.0000
  O   O6        1.0  0.8979962101617212  0.46409420677999486  0.3313358726918598  1.0000
  O   O7        1.0  0.9785779975322539  0.545544376734438  0.7457625477649358  1.0000
  O   O8        1.0  0.3999121729216593  0.9632084613837306  0.33186387163432574  1.0000
