data_image0
_chemical_formula_structural       O2TiSiTiO2CaO4
_chemical_formula_sum              "O8 Ti2 Si1 Ca1"
_cell_length_a       5.770931152777773
_cell_length_b       5.766102661459366
_cell_length_c       5.762925148010255
_cell_angle_alpha    107.33198939080364
_cell_angle_beta     107.14614640138836
_cell_angle_gamma    113.98620503415981

_space_group_name_H-M_alt    "P 1"
_space_group_IT_number       1

loop_
  _space_group_symop_operation_xyz
  'x, y, z'

loop_
  _atom_site_type_symbol
  _atom_site_label
  _atom_site_symmetry_multiplicity
  _atom_site_fract_x
  _atom_site_fract_y
  _atom_site_fract_z
  _atom_site_occupancy
  O   O1        1.0  0.7542472743781672  0.07940588371015035  0.9419929917144947  1.0000
  O   O2        1.0  0.10821321316382168  0.0797314136300327  0.29582413500153404  1.0000
  Ti  Ti1       1.0  0.5444128939235784  0.6933590499720966  0.11840184600446275  1.0000
  Si  Si1       1.0  0.10178576734363828  0.25026888956862364  0.1184144706086208  1.0000
  Ti  Ti2       1.0  0.8335241240604849  0.48205311956202496  0.6183614444973369  1.0000
  O   O3        1.0  0.21987385893277614  0.6589338414401414  0.827661259971206  1.0000
  O   O4        1.0  0.8008792225242907  0.6590863488744627  0.40855945385210535  1.0000
  Ca  Ca1       1.0  0.33278441929225105  0.9809804760119589  0.6187068289930032  1.0000
  O   O5        1.0  0.27608199909058795  0.249672910594319  0.9433672088789046  1.0000
  O   O6        1.0  0.6651365269180767  0.09195209311531329  0.39656967830961476  1.0000
  O   O7        1.0  0.6654473829158681  0.5359736382183724  0.8403222344198976  1.0000
  O   O8        1.0  0.2761939789143788  0.5996422548864648  0.2932864235982593  1.0000
