data_image0
_chemical_formula_structural       SiTiO2
_chemical_formula_sum              "Si1 Ti1 O2"
_cell_length_a       2.8931317871757907
_cell_length_b       2.906194110804184
_cell_length_c       6.230096817016602
_cell_angle_alpha    76.53371135709953
_cell_angle_beta     76.48630953369714
_cell_angle_gamma    59.98303032330841

_space_group_name_H-M_alt    "P 1"
_space_group_IT_number       1

loop_
  _space_group_symop_operation_xyz
  'x, y, z'

loop_
  _atom_site_type_symbol
  _atom_site_label
  _atom_site_symmetry_multiplicity
  _atom_site_fract_x
  _atom_site_fract_y
  _atom_site_fract_z
  _atom_site_occupancy
  Si  Si1       1.0  0.49676863139352756  0.13095373669952534  0.9812944767362571  1.0000
  Ti  Ti1       1.0  0.9965774667273981  0.6310441352353461  0.48136602733277184  1.0000
  O   O1        1.0  0.3955554479084856  0.03168980376890603  0.282194671343461  1.0000
  O   O2        1.0  0.5975076140152047  0.23034884089470445  0.6804045564165839  1.0000
