data_image0
_chemical_formula_structural       CaTiSiO3SiO5TiOSiO
_chemical_formula_sum              "Ca1 Ti2 Si3 O10"
_cell_length_a       5.4623113179146525
_cell_length_b       5.544552415087503
_cell_length_c       7.1291656494140625
_cell_angle_alpha    104.92487270368355
_cell_angle_beta     102.5986347162022
_cell_angle_gamma    106.8233391878054

_space_group_name_H-M_alt    "P 1"
_space_group_IT_number       1

loop_
  _space_group_symop_operation_xyz
  'x, y, z'

loop_
  _atom_site_type_symbol
  _atom_site_label
  _atom_site_symmetry_multiplicity
  _atom_site_fract_x
  _atom_site_fract_y
  _atom_site_fract_z
  _atom_site_occupancy
  Ca  Ca1       1.0  0.028738931054221168  0.7077939747899795  0.5325282191740224  1.0000
  Ti  Ti1       1.0  0.6890433618014516  0.04348618590594381  0.34205140097787473  1.0000
  Si  Si1       1.0  0.35945427988720946  0.26935576853071524  0.018425576167759125  1.0000
  O   O1        1.0  0.7685341558457762  0.9712800372273952  0.5862968987249  1.0000
  O   O2        1.0  0.8055020403502147  0.7569034927886874  0.21123246087023687  1.0000
  O   O3        1.0  0.040359109230835924  0.9525812104695547  0.9541235653185811  1.0000
  Si  Si2       1.0  0.024494266265196407  0.7360140723435348  0.08749454838000524  1.0000
  O   O4        1.0  0.6147093581955372  0.3651801665664253  0.48679197918594036  1.0000
  O   O5        1.0  0.3784689155724352  0.17932283723166337  0.7441366488972827  1.0000
  O   O6        1.0  0.9311075135743937  0.43466014623776406  0.9230549838314639  1.0000
  O   O7        1.0  0.08211771451082456  0.29315765830814994  0.4371992623196796  1.0000
  O   O8        1.0  0.5981708196511035  0.13138588838818116  0.08466648695501344  1.0000
  Ti  Ti2       1.0  0.7193348595196275  0.0558834983026287  0.8364964907290199  1.0000
  O   O9        1.0  0.4479265395525768  0.6889318686683367  0.7434052588744291  1.0000
  Si  Si3       1.0  0.3844618439902503  0.3811204604898766  0.5978900982462947  1.0000
  O   O10       1.0  0.3086187560276671  0.827649851807334  0.2691968905271468  1.0000
