data_image0
_chemical_formula_structural       TiSiTiSiTi2O2
_chemical_formula_sum              "Ti4 Si2 O2"
_cell_length_a       3.6531097045102277
_cell_length_b       3.6509974318322245
_cell_length_c       8.121503829956055
_cell_angle_alpha    89.95790804599798
_cell_angle_beta     90.02655828061886
_cell_angle_gamma    89.90381977598669

_space_group_name_H-M_alt    "P 1"
_space_group_IT_number       1

loop_
  _space_group_symop_operation_xyz
  'x, y, z'

loop_
  _atom_site_type_symbol
  _atom_site_label
  _atom_site_symmetry_multiplicity
  _atom_site_fract_x
  _atom_site_fract_y
  _atom_site_fract_z
  _atom_site_occupancy
  Ti  Ti1       1.0  0.17224398565930094  0.27370278484713734  0.9895859120893663  1.0000
  Si  Si1       1.0  0.1721230874730464  0.27375571575217533  0.3950833139763281  1.0000
  Ti  Ti2       1.0  0.6723187889400296  0.7735254322599936  0.2398166470885485  1.0000
  Si  Si2       1.0  0.6723699474222775  0.77346919281666  0.8350749678898856  1.0000
  Ti  Ti3       1.0  0.17224461357362963  0.773538986163919  0.6150962962629164  1.0000
  Ti  Ti4       1.0  0.6722291690747217  0.2736659017693861  0.6150088852739329  1.0000
  O   O1        1.0  0.6722504865401003  0.2735923061481233  0.11458501178145347  1.0000
  O   O2        1.0  0.17229346605752782  0.7736385340480285  0.11524692093038716  1.0000
