data_image0
_chemical_formula_structural       TiCaOSiCaOTiOCaOTiO4TiO4
_chemical_formula_sum              "Ti4 Ca3 O12 Si1"
_cell_length_a       5.1012803004623475
_cell_length_b       6.26344173594928
_cell_length_c       9.776383399963379
_cell_angle_alpha    75.57874057126742
_cell_angle_beta     78.17741643117425
_cell_angle_gamma    68.53508160025346

_space_group_name_H-M_alt    "P 1"
_space_group_IT_number       1

loop_
  _space_group_symop_operation_xyz
  'x, y, z'

loop_
  _atom_site_type_symbol
  _atom_site_label
  _atom_site_symmetry_multiplicity
  _atom_site_fract_x
  _atom_site_fract_y
  _atom_site_fract_z
  _atom_site_occupancy
  Ti  Ti1       1.0  0.9274696486893108  0.3718157456106408  0.39062270573355773  1.0000
  Ca  Ca1       1.0  0.7597535840084636  0.13693286768350454  0.7284794730839028  1.0000
  O   O1        1.0  0.9876950261148052  0.372393541415702  0.5685143858303644  1.0000
  Si  Si1       1.0  0.11732132456404253  0.23514859089184373  0.9674797020650818  1.0000
  Ca  Ca2       1.0  0.4688586010682863  0.6864456088651063  0.8661487837487113  1.0000
  O   O2        1.0  0.030211282757899305  0.7799996075527408  0.813006479270135  1.0000
  Ti  Ti2       1.0  0.5456875422881505  0.9045163169845759  0.4392503683422568  1.0000
  O   O3        1.0  0.4089552267067041  0.04370371412585549  0.9071579837294285  1.0000
  Ca  Ca3       1.0  0.860841697800776  0.7606123272403146  0.07327946663691563  1.0000
  O   O4        1.0  0.6921870376416471  0.21551068887728936  0.36947531886701596  1.0000
  Ti  Ti3       1.0  0.033732091462057225  0.6240395576731422  0.6573338627848649  1.0000
  O   O5        1.0  0.6866032719104407  0.8571380028225781  0.6220935283076924  1.0000
  O   O6        1.0  0.9213675145974555  0.3841019732768267  0.835510130171433  1.0000
  O   O7        1.0  0.3192034770297728  0.7023972804208359  0.5385414053824403  1.0000
  O   O8        1.0  0.21816202548291164  0.39767396300729535  0.04070117978444747  1.0000
  Ti  Ti4       1.0  0.536454141969006  0.30171569201738757  0.18491848982976586  1.0000
  O   O9        1.0  0.523844752535803  0.5948275744696133  0.11212164240541224  1.0000
  O   O10       1.0  0.8877274278541659  0.11855599945433751  0.0799934510321536  1.0000
  O   O11       1.0  0.8031080677521728  0.6986854862334224  0.3201624757406317  1.0000
  O   O12       1.0  0.26977971565322945  0.15647571510218328  0.3179670888860616  1.0000
