data_image0
_chemical_formula_structural       TiOCaSiOCaO4
_chemical_formula_sum              "Ti1 O6 Ca2 Si1"
_cell_length_a       4.540208754140227
_cell_length_b       5.089728844405135
_cell_length_c       5.087327003479004
_cell_angle_alpha    89.86185509691867
_cell_angle_beta     90.06882349006861
_cell_angle_gamma    89.89689396450893

_space_group_name_H-M_alt    "P 1"
_space_group_IT_number       1

loop_
  _space_group_symop_operation_xyz
  'x, y, z'

loop_
  _atom_site_type_symbol
  _atom_site_label
  _atom_site_symmetry_multiplicity
  _atom_site_fract_x
  _atom_site_fract_y
  _atom_site_fract_z
  _atom_site_occupancy
  Ti  Ti1       1.0  0.7921626091178045  0.2264990629684711  0.8335188530326066  1.0000
  O   O1        1.0  0.8953295761897405  0.9642199495527551  0.09606657326666446  1.0000
  Ca  Ca1       1.0  0.24714379100770384  0.7260046935959833  0.8339160095849207  1.0000
  Si  Si1       1.0  0.7933142493942813  0.7264900248434183  0.3334886281814676  1.0000
  O   O2        1.0  0.39419508370853884  0.22688035847818586  0.8333053938233955  1.0000
  Ca  Ca2       1.0  0.2469831615425422  0.22624685457809665  0.3338761793910128  1.0000
  O   O3        1.0  0.4284542802937716  0.7266735465651081  0.3330818127311674  1.0000
  O   O4        1.0  0.8957285295197298  0.4888598734417285  0.5709842113796108  1.0000
  O   O5        1.0  0.8945196133018495  0.9641843202702763  0.5713184449907108  1.0000
  O   O6        1.0  0.8946839799115043  0.4889825920328229  0.09552470984065524  1.0000
