data_image0
_chemical_formula_structural       CaTiOSiO4SiO2
_chemical_formula_sum              "Ca1 Ti1 O7 Si2"
_cell_length_a       4.646970744954551
_cell_length_b       5.3985245471071766
_cell_length_c       5.400731563568115
_cell_angle_alpha    102.49722113036547
_cell_angle_beta     96.85396101928079
_cell_angle_gamma    96.85213597259484

_space_group_name_H-M_alt    "P 1"
_space_group_IT_number       1

loop_
  _space_group_symop_operation_xyz
  'x, y, z'

loop_
  _atom_site_type_symbol
  _atom_site_label
  _atom_site_symmetry_multiplicity
  _atom_site_fract_x
  _atom_site_fract_y
  _atom_site_fract_z
  _atom_site_occupancy
  Ca  Ca1       1.0  0.8443375447276513  0.7538270812232127  0.34254939302470866  1.0000
  Ti  Ti1       1.0  0.8448390569383397  0.15052772282352778  0.9454288773033083  1.0000
  O   O1        1.0  0.6391615426614435  0.3346110875637216  0.2044194687922923  1.0000
  Si  Si1       1.0  0.26605395832578527  0.6889020251246739  0.8333805835059388  1.0000
  O   O2        1.0  0.6068698158714003  0.13982823188087012  0.6207959441554673  1.0000
  O   O3        1.0  0.571293626214445  0.8401942240529132  0.0057882611182477495  1.0000
  O   O4        1.0  0.0828853390570545  0.4749761858878107  0.9559186356893119  1.0000
  O   O5        1.0  0.11840367646721116  0.08997972577558137  0.25575812978908996  1.0000
  Si  Si2       1.0  0.42366037073841983  0.26244217596997904  0.4069945035229128  1.0000
  O   O6        1.0  0.3450481469096171  0.5483163923308787  0.5476987446125284  1.0000
  O   O7        1.0  0.05063450772216725  0.89160027283376  0.7613408372523011  1.0000
