data_image0
_chemical_formula_structural       SiCaOCaTi2O4SiO5
_chemical_formula_sum              "Si2 Ca2 O10 Ti2"
_cell_length_a       5.500274170573908
_cell_length_b       5.502246956005049
_cell_length_c       7.1124348640441895
_cell_angle_alpha    104.21892612645
_cell_angle_beta     104.22380932561128
_cell_angle_gamma    105.83588383449768

_space_group_name_H-M_alt    "P 1"
_space_group_IT_number       1

loop_
  _space_group_symop_operation_xyz
  'x, y, z'

loop_
  _atom_site_type_symbol
  _atom_site_label
  _atom_site_symmetry_multiplicity
  _atom_site_fract_x
  _atom_site_fract_y
  _atom_site_fract_z
  _atom_site_occupancy
  Si  Si1       1.0  0.399079624243746  0.5465579423194937  0.3541098000777127  1.0000
  Ca  Ca1       1.0  0.04683967141436318  0.898998509465642  0.35401194833908867  1.0000
  O   O1        1.0  0.649782172389527  0.2952867457064987  0.8540253291513669  1.0000
  Ca  Ca2       1.0  0.39059845061985277  0.5550277451084104  0.854293235632106  1.0000
  Ti  Ti1       1.0  0.7186793971069244  0.22696035776249215  0.6041396710192413  1.0000
  Ti  Ti2       1.0  0.7186547132421693  0.22699358134874878  0.10416883400479246  1.0000
  O   O2        1.0  0.40469366606782403  0.33997413873063803  0.48780504011608855  1.0000
  O   O3        1.0  0.032584416407317136  0.11394269439071594  0.7204370171211748  1.0000
  O   O4        1.0  0.8315273041774269  0.9128804759417336  0.987825567323317  1.0000
  O   O5        1.0  0.78746230542707  0.15857423850363797  0.35421936320183395  1.0000
  Si  Si2       1.0  0.03816696067306199  0.9073327928254569  0.8541236924450971  1.0000
  O   O6        1.0  0.0961569067982283  0.4779120019386256  0.19555280846470427  1.0000
  O   O7        1.0  0.6058244958216632  0.5411036031989347  0.22045385752713192  1.0000
  O   O8        1.0  0.9696688432905083  0.604449628107298  0.6957634993395567  1.0000
  O   O9        1.0  0.4675517164123294  0.8494836231379345  0.5124732846857694  1.0000
  O   O10       1.0  0.34112286287894933  0.9759800028112138  0.012669999192478711  1.0000
