data_image0
_chemical_formula_structural       CaSiTiCaO2
_chemical_formula_sum              "Ca2 Si1 Ti1 O2"
_cell_length_a       3.3522835345828192
_cell_length_b       3.3541233439197558
_cell_length_c       9.334728240966799
_cell_angle_alpha    100.31773422514375
_cell_angle_beta     100.32669588687534
_cell_angle_gamma    89.964512676065

_space_group_name_H-M_alt    "P 1"
_space_group_IT_number       1

loop_
  _space_group_symop_operation_xyz
  'x, y, z'

loop_
  _atom_site_type_symbol
  _atom_site_label
  _atom_site_symmetry_multiplicity
  _atom_site_fract_x
  _atom_site_fract_y
  _atom_site_fract_z
  _atom_site_occupancy
  Ca  Ca1       1.0  0.3154988931417549  0.26265877141299293  0.1246619829397892  1.0000
  Si  Si1       1.0  0.15213090198653217  0.09864239276605247  0.7971088557351985  1.0000
  Ti  Ti1       1.0  0.6001456044570448  0.5467300013627671  0.6930045329979628  1.0000
  Ca  Ca2       1.0  0.9704107357546858  0.9171651251457221  0.43369929189235834  1.0000
  O   O1        1.0  0.4933539215608533  0.44006645838046093  0.47950334329632854  1.0000
  O   O2        1.0  0.8450497299591022  0.7921637186235689  0.183973456274387  1.0000
