data_image0
_chemical_formula_structural       OSiCaTiOTiO4
_chemical_formula_sum              "O6 Si1 Ca1 Ti2"
_cell_length_a       5.155703434179329
_cell_length_b       5.152629504238184
_cell_length_c       5.536628246307372
_cell_angle_alpha    62.26536316234275
_cell_angle_beta     62.12155146556285
_cell_angle_gamma    60.150567714263886

_space_group_name_H-M_alt    "P 1"
_space_group_IT_number       1

loop_
  _space_group_symop_operation_xyz
  'x, y, z'

loop_
  _atom_site_type_symbol
  _atom_site_label
  _atom_site_symmetry_multiplicity
  _atom_site_fract_x
  _atom_site_fract_y
  _atom_site_fract_z
  _atom_site_occupancy
  O   O1        1.0  0.6807707060304177  0.31242157789875413  0.7810269547133457  1.0000
  Si  Si1       1.0  0.8402546180602297  0.9324726575139931  0.04165651543686703  1.0000
  Ca  Ca1       1.0  0.3177038658785631  0.4101883281188271  0.6094933132213461  1.0000
  Ti  Ti1       1.0  0.04237347052854098  0.13451698616257637  0.43458297786613564  1.0000
  O   O2        1.0  0.7697183641972271  0.17711955881572422  0.23098085337087587  1.0000
  Ti  Ti2       1.0  0.528933787569041  0.6218574083816386  0.9731247230507167  1.0000
  O   O3        1.0  0.47632040964624356  0.8616679310957567  0.23145501732827856  1.0000
  O   O4        1.0  0.22057030360191884  0.9724067968054492  0.7808594501949889  1.0000
  O   O5        1.0  0.08381024203780142  0.5690803412459099  0.23105859608343807  1.0000
  O   O6        1.0  0.880041427096914  0.7728012867279866  0.780732778673418  1.0000
