data_image0
_chemical_formula_structural       CaSiOSi2OTiO8
_chemical_formula_sum              "Ca1 Si3 O10 Ti1"
_cell_length_a       5.905709682200488
_cell_length_b       5.565999315257172
_cell_length_c       7.444014549255372
_cell_angle_alpha    100.65002872549519
_cell_angle_beta     95.20624622371093
_cell_angle_gamma    101.5996104306915

_space_group_name_H-M_alt    "P 1"
_space_group_IT_number       1

loop_
  _space_group_symop_operation_xyz
  'x, y, z'

loop_
  _atom_site_type_symbol
  _atom_site_label
  _atom_site_symmetry_multiplicity
  _atom_site_fract_x
  _atom_site_fract_y
  _atom_site_fract_z
  _atom_site_occupancy
  Ca  Ca1       1.0  0.7634296611879496  0.9943274636273294  0.17988800178704067  1.0000
  Si  Si1       1.0  0.5779940374023369  0.042232576050425095  0.6440770995091691  1.0000
  O   O1        1.0  0.43855427675893166  0.7590326813080355  0.647065342108566  1.0000
  Si  Si2       1.0  0.3270607274021862  0.3713079767859793  0.1625891950805116  1.0000
  Si  Si3       1.0  0.9319782899150103  0.4392054285980992  0.8849600983524548  1.0000
  O   O2        1.0  0.43473743940812465  0.1269888333826521  0.14228919480602595  1.0000
  Ti  Ti1       1.0  0.24002615104750633  0.45620145899487796  0.571222048091649  1.0000
  O   O3        1.0  0.17890294168004664  0.3912560238717836  0.9737012157147626  1.0000
  O   O4        1.0  0.7400977616068667  0.16696344709912075  0.8479932796805769  1.0000
  O   O5        1.0  0.14355272796139337  0.3718885380986763  0.3183925406032563  1.0000
  O   O6        1.0  0.3878666469573105  0.21554965202334728  0.6185766011017685  1.0000
  O   O7        1.0  0.9846419239773667  0.4934989297744013  0.6823154240944721  1.0000
  O   O8        1.0  0.8502425174937177  0.6661110920168037  0.008592779301596076  1.0000
  O   O9        1.0  0.5574776245722767  0.605234252932014  0.22949872715844868  1.0000
  O   O10       1.0  0.7398706584737751  0.030455290918768613  0.4799191495106104  1.0000
