data_image0
_chemical_formula_structural       OCaSiO3TiO2
_chemical_formula_sum              "O6 Ca1 Si1 Ti1"
_cell_length_a       4.995394706734456
_cell_length_b       5.0073207391446575
_cell_length_c       5.009918212890625
_cell_angle_alpha    120.06763496123784
_cell_angle_beta     90.00010495732407
_cell_angle_gamma    90.09642428158385

_space_group_name_H-M_alt    "P 1"
_space_group_IT_number       1

loop_
  _space_group_symop_operation_xyz
  'x, y, z'

loop_
  _atom_site_type_symbol
  _atom_site_label
  _atom_site_symmetry_multiplicity
  _atom_site_fract_x
  _atom_site_fract_y
  _atom_site_fract_z
  _atom_site_occupancy
  O   O1        1.0  0.8435093614043295  0.1082582678862267  0.1313031978144096  1.0000
  Ca  Ca1       1.0  0.5479211989470077  0.7452324457967113  0.7419689428849334  1.0000
  Si  Si1       1.0  0.04791500305939781  0.0786838898155022  0.40864783425799034  1.0000
  O   O2        1.0  0.25235380350942416  0.35618801480347073  0.3788507431689466  1.0000
  O   O3        1.0  0.2522779557584072  0.7715250240967169  0.13145769008141778  1.0000
  O   O4        1.0  0.2522044566104695  0.1085839533530756  0.7160903438840384  1.0000
  Ti  Ti1       1.0  0.047907941946769554  0.4117730588088158  0.07525553834899797  1.0000
  O   O5        1.0  0.8437614798529071  0.3560583764188987  0.7159862895869875  1.0000
  O   O6        1.0  0.8434669524210253  0.7710403386039503  0.37862288339015704  1.0000
