data_image0
_chemical_formula_structural       TiSi2O3CaO5
_chemical_formula_sum              "Ti1 Si2 O8 Ca1"
_cell_length_a       5.141083774097022
_cell_length_b       5.145742262775579
_cell_length_c       6.832182884216308
_cell_angle_alpha    88.34590811564345
_cell_angle_beta     88.43317072286163
_cell_angle_gamma    63.46162986289823

_space_group_name_H-M_alt    "P 1"
_space_group_IT_number       1

loop_
  _space_group_symop_operation_xyz
  'x, y, z'

loop_
  _atom_site_type_symbol
  _atom_site_label
  _atom_site_symmetry_multiplicity
  _atom_site_fract_x
  _atom_site_fract_y
  _atom_site_fract_z
  _atom_site_occupancy
  Ti  Ti1       1.0  0.6829538135382791  0.04822453114120284  0.3133182840333735  1.0000
  Si  Si1       1.0  0.0354974844843714  0.40065648667938003  0.5408796301267772  1.0000
  Si  Si2       1.0  0.33082966449296275  0.6961837418670246  0.08576431877400675  1.0000
  O   O1        1.0  0.94931227045174  0.3134684886049795  0.7609085798356386  1.0000
  O   O2        1.0  0.38924855921289686  0.25368132576568514  0.5201483915250456  1.0000
  O   O3        1.0  0.8886728712063889  0.7541912528060059  0.520438255758496  1.0000
  Ca  Ca1       1.0  0.6829672642486225  0.04821572607313436  0.8134043998439497  1.0000
  O   O4        1.0  0.4165387540315478  0.7828900328228623  0.8654546275195065  1.0000
  O   O5        1.0  0.9770411477642489  0.8430629127659005  0.10668172150782358  1.0000
  O   O6        1.0  0.4729214019547546  0.838097280930233  0.23446915347768227  1.0000
  O   O7        1.0  0.8933033009519493  0.2587380117090244  0.3922916763199572  1.0000
  O   O8        1.0  0.47760030674500614  0.34264758745532364  0.10638070768229634  1.0000
