data_image0
_chemical_formula_structural       CaTiCa2TiCaOSi2O
_chemical_formula_sum              "Ca4 Ti2 O2 Si2"
_cell_length_a       4.5737619482783485
_cell_length_b       4.102259823364192
_cell_length_c       10.770906448364258
_cell_angle_alpha    101.00052025980146
_cell_angle_beta     89.99655325884576
_cell_angle_gamma    89.99659424026213

_space_group_name_H-M_alt    "P 1"
_space_group_IT_number       1

loop_
  _space_group_symop_operation_xyz
  'x, y, z'

loop_
  _atom_site_type_symbol
  _atom_site_label
  _atom_site_symmetry_multiplicity
  _atom_site_fract_x
  _atom_site_fract_y
  _atom_site_fract_z
  _atom_site_occupancy
  Ca  Ca1       1.0  0.4202371184777624  0.47846950346261835  0.3721304936737034  1.0000
  Ti  Ti1       1.0  0.9203248897309049  0.7062474032089627  0.828028345887306  1.0000
  Ca  Ca2       1.0  0.42029002071304383  0.22944568982877359  0.8742900252487629  1.0000
  Ca  Ca3       1.0  0.9203399381074201  0.09027359715736266  0.5963990886516635  1.0000
  Ti  Ti2       1.0  0.42019953839502877  0.8625315622763352  0.14046715676278249  1.0000
  Ca  Ca4       1.0  0.9201117077355876  0.3393409893370647  0.09426047725981895  1.0000
  O   O1        1.0  0.4203102601672887  0.35293052374001194  0.12124550549310972  1.0000
  Si  Si1       1.0  0.42036173209217204  0.6288882569778452  0.673535924265209  1.0000
  Si  Si2       1.0  0.9201626648290907  0.9399097132537153  0.2949999915030118  1.0000
  O   O2        1.0  0.9203834709649242  0.21580980337056857  0.8472053354163935  1.0000
