data_image0
_chemical_formula_structural       TiCaTiO2SiO3
_chemical_formula_sum              "Ti2 Ca1 O5 Si1"
_cell_length_a       3.7511121716831224
_cell_length_b       3.7561135175822873
_cell_length_c       6.935919284820556
_cell_angle_alpha    89.95457491604537
_cell_angle_beta     89.93290955266394
_cell_angle_gamma    89.91034942819698

_space_group_name_H-M_alt    "P 1"
_space_group_IT_number       1

loop_
  _space_group_symop_operation_xyz
  'x, y, z'

loop_
  _atom_site_type_symbol
  _atom_site_label
  _atom_site_symmetry_multiplicity
  _atom_site_fract_x
  _atom_site_fract_y
  _atom_site_fract_z
  _atom_site_occupancy
  Ti  Ti1       1.0  0.4283086645878087  0.9124756692519854  0.47208700538607085  1.0000
  Ca  Ca1       1.0  0.9284966482163238  0.41235343100712624  0.14088688894861823  1.0000
  Ti  Ti2       1.0  0.9278628257564828  0.4121582459506006  0.6497277089994874  1.0000
  O   O1        1.0  0.4285632941437907  0.41251552088800175  0.464387202550272  1.0000
  O   O2        1.0  0.4279776717275092  0.9123600764107107  0.1332770010943346  1.0000
  Si  Si1       1.0  0.4284423145946765  0.9125477821128372  0.8691077599831523  1.0000
  O   O3        1.0  0.9285308470972574  0.9128648566099938  0.8711407054376115  1.0000
  O   O4        1.0  0.9283552629224125  0.9127113627700905  0.46419172193943786  1.0000
  O   O5        1.0  0.4286973020590586  0.4127052224356197  0.8712187959095726  1.0000
