data_image0
_chemical_formula_structural       TiCaSiCaO
_chemical_formula_sum              "Ti1 Ca2 Si1 O1"
_cell_length_a       4.059251844067943
_cell_length_b       4.7681845093852155
_cell_length_c       4.770423889160155
_cell_angle_alpha    90.06622801808767
_cell_angle_beta     90.05639254258377
_cell_angle_gamma    90.01543190230312

_space_group_name_H-M_alt    "P 1"
_space_group_IT_number       1

loop_
  _space_group_symop_operation_xyz
  'x, y, z'

loop_
  _atom_site_type_symbol
  _atom_site_label
  _atom_site_symmetry_multiplicity
  _atom_site_fract_x
  _atom_site_fract_y
  _atom_site_fract_z
  _atom_site_occupancy
  Ti  Ti1       1.0  0.9547148891082973  0.7808440230739905  0.7744914834495253  1.0000
  Ca  Ca1       1.0  0.45495427852109166  0.780562079101969  0.27420213325266424  1.0000
  Si  Si1       1.0  0.9549229965531943  0.2810467434796249  0.27420885495259734  1.0000
  Ca  Ca2       1.0  0.45490712353682033  0.28053424285932066  0.7744738532250772  1.0000
  O   O1        1.0  0.4548949272368119  0.7810941668892594  0.774281940734445  1.0000
