data_image0
_chemical_formula_structural       CaSi2TiO8
_chemical_formula_sum              "Ca1 Si2 Ti1 O8"
_cell_length_a       5.630968434547321
_cell_length_b       5.632143225456992
_cell_length_c       5.6378326416015625
_cell_angle_alpha    106.61169774878489
_cell_angle_beta     106.55633383135775
_cell_angle_gamma    115.31420402546243

_space_group_name_H-M_alt    "P 1"
_space_group_IT_number       1

loop_
  _space_group_symop_operation_xyz
  'x, y, z'

loop_
  _atom_site_type_symbol
  _atom_site_label
  _atom_site_symmetry_multiplicity
  _atom_site_fract_x
  _atom_site_fract_y
  _atom_site_fract_z
  _atom_site_occupancy
  Ca  Ca1       1.0  0.21199172823296306  0.8346775983602107  0.1684313980122006  1.0000
  Si  Si1       1.0  0.46234512024851165  0.584590105040922  0.6682664079769278  1.0000
  Si  Si2       1.0  0.7122334990999719  0.3345041639886161  0.16841960927559732  1.0000
  Ti  Ti1       1.0  0.9612148417459732  0.08616913122033965  0.6692117417908887  1.0000
  O   O1        1.0  0.7511218378824989  0.17412308060790135  0.36812938171440795  1.0000
  O   O2        1.0  0.3525070950280415  0.17463643249846478  0.9696395154027196  1.0000
  O   O3        1.0  0.4742297118651749  0.7710403261145474  0.4940838871851692  1.0000
  O   O4        1.0  0.8227531485979322  0.7702951399656814  0.841945849814073  1.0000
  O   O5        1.0  0.8726673477969015  0.6943462653429452  0.36750744966886595  1.0000
  O   O6        1.0  0.27613161248765516  0.22409336504121102  0.49459875625992805  1.0000
  O   O7        1.0  0.27579742276852914  0.57277584800317  0.8425507337644685  1.0000
  O   O8        1.0  0.8728133503136828  0.2955202566093528  0.9686871778130091  1.0000
