data_image0
_chemical_formula_structural       OTiCaSiO3SiO3
_chemical_formula_sum              "O7 Ti1 Ca1 Si2"
_cell_length_a       4.65121352231319
_cell_length_b       5.401102735820355
_cell_length_c       5.403398036956786
_cell_angle_alpha    102.33175761695679
_cell_angle_beta     96.66432069666573
_cell_angle_gamma    96.68758431941873

_space_group_name_H-M_alt    "P 1"
_space_group_IT_number       1

loop_
  _space_group_symop_operation_xyz
  'x, y, z'

loop_
  _atom_site_type_symbol
  _atom_site_label
  _atom_site_symmetry_multiplicity
  _atom_site_fract_x
  _atom_site_fract_y
  _atom_site_fract_z
  _atom_site_occupancy
  O   O1        1.0  0.7587534114235656  0.38758270674543194  0.8958397532462702  1.0000
  Ti  Ti1       1.0  0.5531308186887237  0.5713588247789327  0.15533009075257018  1.0000
  Ca  Ca1       1.0  0.5532562429879552  0.9684168652566612  0.7579920863458071  1.0000
  Si  Si1       1.0  0.1313725016264761  0.03324156138947011  0.266526798409154  1.0000
  O   O2        1.0  0.05304391131688114  0.17469978216360757  0.551889982754531  1.0000
  O   O3        1.0  0.7908975259430155  0.5829068573212978  0.47968871179345673  1.0000
  O   O4        1.0  0.3472721397759756  0.8306253213245154  0.3390930252045709  1.0000
  Si  Si2       1.0  0.9748147438914329  0.4602160465692176  0.6933274686451817  1.0000
  O   O5        1.0  0.8271774955482912  0.882224738084193  0.09503260925825407  1.0000
  O   O6        1.0  0.2789882389972095  0.6316978716995474  0.8444733541604406  1.0000
  O   O7        1.0  0.31538431723066634  0.2469166114291737  0.14382009493411907  1.0000
