data_image0
_chemical_formula_structural       SiOCaSiO3CaTiO2
_chemical_formula_sum              "Si2 O6 Ca2 Ti1"
_cell_length_a       3.7652904060238703
_cell_length_b       3.7652278159885877
_cell_length_c       9.417099952697754
_cell_angle_alpha    101.52195820534013
_cell_angle_beta     101.55250923197647
_cell_angle_gamma    90.01879925809264

_space_group_name_H-M_alt    "P 1"
_space_group_IT_number       1

loop_
  _space_group_symop_operation_xyz
  'x, y, z'

loop_
  _atom_site_type_symbol
  _atom_site_label
  _atom_site_symmetry_multiplicity
  _atom_site_fract_x
  _atom_site_fract_y
  _atom_site_fract_z
  _atom_site_occupancy
  Si  Si1       1.0  0.6225615086407206  0.5642492079154301  0.24139454726234835  1.0000
  O   O1        1.0  0.18480207725977743  0.5494161129224935  0.2473496925036185  1.0000
  Ca  Ca1       1.0  0.21238840088753472  0.13487330862890584  0.3985671378073363  1.0000
  Si  Si2       1.0  0.7645939610142609  0.14641480362178672  0.056790789937952633  1.0000
  O   O2        1.0  0.32525169866618275  0.17294348461682219  0.6367288929711828  1.0000
  O   O3        1.0  0.7628096425886473  0.611735265357172  0.4275165445126227  1.0000
  O   O4        1.0  0.9112009261829727  0.38553256778865436  0.8258210053746056  1.0000
  Ca  Ca2       1.0  0.8393370877648368  0.8057621039520343  0.6687877611426026  1.0000
  Ti  Ti1       1.0  0.4165002086333961  0.37841870737301797  0.8463952617350325  1.0000
  O   O5        1.0  0.6488170218794634  0.9851375804907301  0.21246568598685558  1.0000
  O   O6        1.0  0.44365842698147095  0.8933696573494427  0.9032139712142202  1.0000
