data_image0
_chemical_formula_structural       SiO6TiCaOSiO
_chemical_formula_sum              "Si2 O8 Ti1 Ca1"
_cell_length_a       5.639950184582648
_cell_length_b       5.639699001373452
_cell_length_c       5.646292209625244
_cell_angle_alpha    106.49536747780452
_cell_angle_beta     106.54832774203368
_cell_angle_gamma    115.35496744986368

_space_group_name_H-M_alt    "P 1"
_space_group_IT_number       1

loop_
  _space_group_symop_operation_xyz
  'x, y, z'

loop_
  _atom_site_type_symbol
  _atom_site_label
  _atom_site_symmetry_multiplicity
  _atom_site_fract_x
  _atom_site_fract_y
  _atom_site_fract_z
  _atom_site_occupancy
  Si  Si1       1.0  0.31386156641427776  0.7837813288575848  0.5182987833107416  1.0000
  O   O1        1.0  0.9084502439272698  0.0787728842473034  0.24029533012894352  1.0000
  O   O2        1.0  0.9398004118945025  0.690181189576302  0.880488736659904  1.0000
  O   O3        1.0  0.05387592578472594  0.18638550223655154  0.8567525277618747  1.0000
  O   O4        1.0  0.46844478758898306  0.2170013382500661  0.27068160641447153  1.0000
  O   O5        1.0  0.22159074975004614  0.5723237757900395  0.6623128427196272  1.0000
  O   O6        1.0  0.9991899948401474  0.6837771133651339  0.27518532526137246  1.0000
  Ti  Ti1       1.0  0.807748337468075  0.21535355452169647  0.5550850512085758  1.0000
  Ca  Ca1       1.0  0.5406304350749397  0.5332701679238525  0.9962824227433178  1.0000
  O   O7        1.0  0.5269157182291462  0.14000329605222767  0.7252119187976733  1.0000
  Si  Si2       1.0  0.1093560056784415  0.05432175320136271  0.08182438777875876  1.0000
  O   O8        1.0  0.5343442589373043  0.7803339212758373  0.3841370986209055  1.0000
