data_image0
_chemical_formula_structural       OSiO4TiOCa
_chemical_formula_sum              "O6 Si1 Ti1 Ca1"
_cell_length_a       5.00478859250131
_cell_length_b       5.006370856448852
_cell_length_c       5.027931213378906
_cell_angle_alpha    89.97977148318506
_cell_angle_beta     89.94749884119165
_cell_angle_gamma    119.90678615109898

_space_group_name_H-M_alt    "P 1"
_space_group_IT_number       1

loop_
  _space_group_symop_operation_xyz
  'x, y, z'

loop_
  _atom_site_type_symbol
  _atom_site_label
  _atom_site_symmetry_multiplicity
  _atom_site_fract_x
  _atom_site_fract_y
  _atom_site_fract_z
  _atom_site_occupancy
  O   O1        1.0  0.32868196305812847  0.6564709470698286  0.7567241803674077  1.0000
  Si  Si1       1.0  0.29848817610257855  0.933694948695496  0.5529940596563476  1.0000
  O   O2        1.0  0.575442385119615  0.24056730828096617  0.7565436458460444  1.0000
  O   O3        1.0  0.5757892962339184  0.9034483191979555  0.3493013587278222  1.0000
  O   O4        1.0  0.3288193682227464  0.24119005414219488  0.34944853798859055  1.0000
  O   O5        1.0  0.9916563052964006  0.6566706476200441  0.3494024875344336  1.0000
  Ti  Ti1       1.0  0.6319378646237631  0.6000792211688987  0.5528931217420249  1.0000
  O   O6        1.0  0.9908175938272598  0.9032781628535812  0.7564998766437339  1.0000
  Ca  Ca1       1.0  0.965165319687881  0.26691076428931365  0.05292186001191398  1.0000
