data_image0
_chemical_formula_structural       TiCaSiOTiCaOSiOSiO8
_chemical_formula_sum              "Ti2 Ca2 Si3 O11"
_cell_length_a       5.614226643849178
_cell_length_b       6.528970937622417
_cell_length_c       7.640756130218505
_cell_angle_alpha    104.56267679318229
_cell_angle_beta     101.06743625117349
_cell_angle_gamma    108.08824921044827

_space_group_name_H-M_alt    "P 1"
_space_group_IT_number       1

loop_
  _space_group_symop_operation_xyz
  'x, y, z'

loop_
  _atom_site_type_symbol
  _atom_site_label
  _atom_site_symmetry_multiplicity
  _atom_site_fract_x
  _atom_site_fract_y
  _atom_site_fract_z
  _atom_site_occupancy
  Ti  Ti1       1.0  0.9197529355130134  0.9683961593901992  0.7822068453018769  1.0000
  Ca  Ca1       1.0  0.47366216117397114  0.3848754210199776  0.07145367086457019  1.0000
  Si  Si1       1.0  0.13988327452458266  0.5749659549619843  0.3313927076510732  1.0000
  O   O1        1.0  0.31146870898423773  0.4182186773517927  0.3585045072645254  1.0000
  Ti  Ti2       1.0  0.6786776784293052  0.523718348191029  0.5351267652126465  1.0000
  Ca  Ca2       1.0  0.9050719840420867  0.09591748018625026  0.3913692079834729  1.0000
  O   O2        1.0  0.7808990278140775  0.7630617994597017  0.14492048444125497  1.0000
  Si  Si2       1.0  0.0025106761638209463  0.7655764054492071  0.038251962182328056  1.0000
  O   O3        1.0  0.7528195419213496  0.8232603634767842  0.5209814392339088  1.0000
  Si  Si3       1.0  0.44086864772214046  0.06947370022544978  0.6520266362073852  1.0000
  O   O4        1.0  0.236476719990147  0.18255189107691475  0.7297934529424548  1.0000
  O   O5        1.0  0.8599955091268807  0.6411816018269102  0.8083235271469646  1.0000
  O   O6        1.0  0.24125789580255652  0.8094352080838214  0.5108596351741468  1.0000
  O   O7        1.0  0.17767978136631193  0.018716949215058693  0.0404360615061758  1.0000
  O   O8        1.0  0.5921030645517682  0.19706322878076152  0.5252501120782263  1.0000
  O   O9        1.0  0.17328467527067676  0.6269105356668118  0.1309174147993774  1.0000
  O   O10       1.0  0.8372474189576393  0.4193330049052582  0.3150085386533486  1.0000
  O   O11       1.0  0.6533985901810048  0.08136559562807717  0.8397314893997683  1.0000
