data_image0
_chemical_formula_structural       OCa2TiSiOSiO2TiO5SiO4
_chemical_formula_sum              "O13 Ca2 Ti2 Si3"
_cell_length_a       5.9931284094620425
_cell_length_b       7.393921226202966
_cell_length_c       7.36927843093872
_cell_angle_alpha    91.82955751390777
_cell_angle_beta     107.98205260032518
_cell_angle_gamma    106.30429831545649

_space_group_name_H-M_alt    "P 1"
_space_group_IT_number       1

loop_
  _space_group_symop_operation_xyz
  'x, y, z'

loop_
  _atom_site_type_symbol
  _atom_site_label
  _atom_site_symmetry_multiplicity
  _atom_site_fract_x
  _atom_site_fract_y
  _atom_site_fract_z
  _atom_site_occupancy
  O   O1        1.0  0.6359919111976419  0.9663354813451198  0.7079422333614118  1.0000
  Ca  Ca1       1.0  0.7492363423473605  0.01590794624066697  0.42537339011117836  1.0000
  Ca  Ca2       1.0  0.20995183554452915  0.7776177844321861  0.5606718273052335  1.0000
  Ti  Ti1       1.0  0.804744081587833  0.08817502351337703  0.9410777953113123  1.0000
  Si  Si1       1.0  0.21047934538217417  0.47800898695947264  0.864914478541159  1.0000
  O   O2        1.0  0.32862208878959687  0.8107209176696349  0.26920347981012077  1.0000
  Si  Si2       1.0  0.5551264643420853  0.538804215551514  0.27170761411393796  1.0000
  O   O3        1.0  0.9688535363629296  0.23381994852105434  0.2662925516852447  1.0000
  O   O4        1.0  0.798771131584921  0.7124173115840625  0.3694876349943253  1.0000
  Ti  Ti2       1.0  0.2394636416272876  0.2826091537943325  0.46461455066969  1.0000
  O   O5        1.0  0.46828294470129966  0.48896464271134465  0.03601088638015946  1.0000
  O   O6        1.0  0.5214719443361447  0.3487106110299646  0.3797019522126922  1.0000
  O   O7        1.0  0.9691483927916964  0.3190153428900758  0.8751943280416842  1.0000
  O   O8        1.0  0.2491394306539227  0.47180080893558346  0.6554711443259339  1.0000
  O   O9        1.0  0.1649338094666247  0.6912188682953976  0.8776949161382646  1.0000
  Si  Si3       1.0  0.2641354990350856  0.8788385862354802  0.037333612676948104  1.0000
  O   O10       1.0  0.05007073097559628  0.9719501742549148  0.019326358355236772  1.0000
  O   O11       1.0  0.3001394506879131  0.6085529944169733  0.2925828288552268  1.0000
  O   O12       1.0  0.17154260649980047  0.07160674215207138  0.5693045668536253  1.0000
  O   O13       1.0  0.5329725664714416  0.011286605991489135  0.049318133566145284  1.0000
