data_image0
_chemical_formula_structural       SiCa2OSiO3TiO4
_chemical_formula_sum              "Si2 Ca2 O8 Ti1"
_cell_length_a       5.520274678614058
_cell_length_b       4.99668519151894
_cell_length_c       7.1028618812561035
_cell_angle_alpha    109.66451828167261
_cell_angle_beta     98.5014505379354
_cell_angle_gamma    81.54823790254187

_space_group_name_H-M_alt    "P 1"
_space_group_IT_number       1

loop_
  _space_group_symop_operation_xyz
  'x, y, z'

loop_
  _atom_site_type_symbol
  _atom_site_label
  _atom_site_symmetry_multiplicity
  _atom_site_fract_x
  _atom_site_fract_y
  _atom_site_fract_z
  _atom_site_occupancy
  Si  Si1       1.0  0.3476846221854905  0.8247113428504412  0.6794005163509571  1.0000
  Ca  Ca1       1.0  0.7442731818756826  0.35650570079012117  0.8277670263304886  1.0000
  Ca  Ca2       1.0  0.630074543288078  0.9867183119406356  0.16364356642828334  1.0000
  O   O1        1.0  0.11963937323120782  0.07486255035502774  0.7305581725060689  1.0000
  Si  Si2       1.0  0.25607067611004264  0.5548072282210498  0.20261840542195791  1.0000
  O   O2        1.0  0.33979044112534895  0.8128758001581339  0.43340967142027076  1.0000
  O   O3        1.0  0.9918343868164834  0.6733769319167439  0.11566364343119512  1.0000
  O   O4        1.0  0.49821857062951347  0.51827984468862  0.09023286465899495  1.0000
  Ti  Ti1       1.0  0.1285183637906302  0.2119334307535574  0.4911395750191859  1.0000
  O   O5        1.0  0.6057339906911414  0.9005167405355909  0.8136525727714105  1.0000
  O   O6        1.0  0.2434023127747721  0.26151953440393855  0.261089217452536  1.0000
  O   O7        1.0  0.29438693338286054  0.5102724162833211  0.6730336879727118  1.0000
  O   O8        1.0  0.8106572699452114  0.27521471672704606  0.4686908125373924  1.0000
