data_image0
_chemical_formula_structural       Ca2OTiSiOTiSiO8
_chemical_formula_sum              "Ca2 O10 Ti2 Si2"
_cell_length_a       5.500790980813119
_cell_length_b       5.500022638560279
_cell_length_c       7.107660293579101
_cell_angle_alpha    104.35428002286001
_cell_angle_beta     104.33232721146294
_cell_angle_gamma    105.81556293821187

_space_group_name_H-M_alt    "P 1"
_space_group_IT_number       1

loop_
  _space_group_symop_operation_xyz
  'x, y, z'

loop_
  _atom_site_type_symbol
  _atom_site_label
  _atom_site_symmetry_multiplicity
  _atom_site_fract_x
  _atom_site_fract_y
  _atom_site_fract_z
  _atom_site_occupancy
  Ca  Ca1       1.0  0.5456219811282655  0.758148488493208  0.8305623912447455  1.0000
  Ca  Ca2       1.0  0.8881689329261594  0.4154654047288029  0.33044590835884863  1.0000
  O   O1        1.0  0.32847872087988117  0.7724855530805267  0.46355327851525113  1.0000
  Ti  Ti1       1.0  0.21689247813925253  0.086707491167254  0.0804741572766662  1.0000
  Si  Si1       1.0  0.5358074388572358  0.7678167183168129  0.33061346608643516  1.0000
  O   O2        1.0  0.966522258717376  0.7088976099573528  0.9895324957841308  1.0000
  Ti  Ti2       1.0  0.21682781730581774  0.0868067361265151  0.5804806595191213  1.0000
  Si  Si2       1.0  0.8978687384969  0.4056602103853059  0.8304484057138314  1.0000
  O   O3        1.0  0.14753247254437  0.15588062155092172  0.33051064734146435  1.0000
  O   O4        1.0  0.2861489020199578  0.017619651981993202  0.8305516511744927  1.0000
  O   O5        1.0  0.10522639286067356  0.40104355636758243  0.6975222766126088  1.0000
  O   O6        1.0  0.9026454876582091  0.1984638981945884  0.9634728372060187  1.0000
  O   O7        1.0  0.5310191214308141  0.9749910740366962  0.19756942721246337  1.0000
  O   O8        1.0  0.5947085376753346  0.3369671924022273  0.6713282577507669  1.0000
  O   O9        1.0  0.4671680458145042  0.46457114693694135  0.17154529442333719  1.0000
  O   O10       1.0  0.8389749742044885  0.836543218467491  0.48972989020519897  1.0000
