data_image0
_chemical_formula_structural       SiOTiCaO3SiO4
_chemical_formula_sum              "Si2 O8 Ti1 Ca1"
_cell_length_a       5.475973133370377
_cell_length_b       5.965917241161932
_cell_length_c       6.396130561828613
_cell_angle_alpha    78.6933685239117
_cell_angle_beta     57.6857831597659
_cell_angle_gamma    72.85038599133783

_space_group_name_H-M_alt    "P 1"
_space_group_IT_number       1

loop_
  _space_group_symop_operation_xyz
  'x, y, z'

loop_
  _atom_site_type_symbol
  _atom_site_label
  _atom_site_symmetry_multiplicity
  _atom_site_fract_x
  _atom_site_fract_y
  _atom_site_fract_z
  _atom_site_occupancy
  Si  Si1       1.0  0.6100458776251921  0.4445877736177516  0.8750109849716341  1.0000
  O   O1        1.0  0.2630649921200125  0.3858284276193143  0.01886624521520383  1.0000
  Ti  Ti1       1.0  0.6521628881605489  0.6194791502804877  0.3174472775048361  1.0000
  Ca  Ca1       1.0  0.8080069791924427  0.9098292070650132  0.6381814035869017  1.0000
  O   O2        1.0  0.918301036440945  0.8372464525413803  0.1871213386170478  1.0000
  O   O3        1.0  0.283984410685786  0.14804097843031797  0.95230095085157  1.0000
  O   O4        1.0  0.6401996378795745  0.6287330073762096  0.009896441266825337  1.0000
  Si  Si2       1.0  0.9272718638937381  0.10686100112200936  0.09357795171547183  1.0000
  O   O5        1.0  0.7250798422205058  0.554697986070495  0.5973405377905168  1.0000
  O   O6        1.0  0.8235440687941094  0.1806660294199097  0.881541189005935  1.0000
  O   O7        1.0  0.29476813068564156  0.771556759117357  0.48684447142407344  1.0000
  O   O8        1.0  0.720183141030824  0.2678249286831592  0.3310410581210503  1.0000
