data_image0
_chemical_formula_structural       OCaO2SiO
_chemical_formula_sum              "O4 Ca1 Si1"
_cell_length_a       4.510455324173767
_cell_length_b       4.511045362179554
_cell_length_c       4.494470596313477
_cell_angle_alpha    89.93653638395246
_cell_angle_beta     89.95915114627051
_cell_angle_gamma    89.85033258946116

_space_group_name_H-M_alt    "P 1"
_space_group_IT_number       1

loop_
  _space_group_symop_operation_xyz
  'x, y, z'

loop_
  _atom_site_type_symbol
  _atom_site_label
  _atom_site_symmetry_multiplicity
  _atom_site_fract_x
  _atom_site_fract_y
  _atom_site_fract_z
  _atom_site_occupancy
  O   O1        1.0  0.840486124762826  0.12460807178736402  0.9103545064620523  1.0000
  Ca  Ca1       1.0  0.5491115606077135  0.4157527242344115  0.6191209060124964  1.0000
  O   O2        1.0  0.8404755213807971  0.7076118052814806  0.3287471321752422  1.0000
  O   O3        1.0  0.25781367635743396  0.7074229810981055  0.9104077114477765  1.0000
  Si  Si1       1.0  0.04904874170127189  0.9159368514245111  0.11971405798257631  1.0000
  O   O4        1.0  0.25764259632535974  0.12409664901427729  0.3282916590056606  1.0000
