data_image0
_chemical_formula_structural       CaOCa2TiSi2OTi2O10
_chemical_formula_sum              "Ca3 O12 Ti3 Si2"
_cell_length_a       5.779824769005884
_cell_length_b       6.935341990916647
_cell_length_c       6.935996055603027
_cell_angle_alpha    84.2706754992682
_cell_angle_beta     76.41265892182005
_cell_angle_gamma    76.48573558156653

_space_group_name_H-M_alt    "P 1"
_space_group_IT_number       1

loop_
  _space_group_symop_operation_xyz
  'x, y, z'

loop_
  _atom_site_type_symbol
  _atom_site_label
  _atom_site_symmetry_multiplicity
  _atom_site_fract_x
  _atom_site_fract_y
  _atom_site_fract_z
  _atom_site_occupancy
  Ca  Ca1       1.0  0.07996148451286963  0.62694429660117  0.20847940131289353  1.0000
  O   O1        1.0  0.654246456658541  0.7140371025026989  0.38994038081279214  1.0000
  Ca  Ca2       1.0  0.07985106048838982  0.24759712313610052  0.5882250514698207  1.0000
  Ca  Ca3       1.0  0.579860524550331  0.036231805360257406  0.7987199905182466  1.0000
  Ti  Ti1       1.0  0.06796625583584384  0.12761172348314762  0.1254867761076758  1.0000
  Si  Si1       1.0  0.578774328820243  0.5321662465653496  0.8933889629208415  1.0000
  Si  Si2       1.0  0.5811694486003144  0.9419192338228304  0.3032323762479762  1.0000
  O   O2        1.0  0.7959229060431279  0.6597510309131357  0.8690216858994797  1.0000
  Ti  Ti2       1.0  0.5799019692496032  0.43001233580058673  0.40527585201645133  1.0000
  Ti  Ti3       1.0  0.09239972381256746  0.7102747317525927  0.7076822990372125  1.0000
  O   O3        1.0  0.3644402605165195  0.9661423220225523  0.17545114296370956  1.0000
  O   O4        1.0  0.9811309001883581  0.9509161368976744  0.6159524588411346  1.0000
  O   O5        1.0  0.21118063336021636  0.5429545588590171  0.50282479368053  1.0000
  O   O6        1.0  0.504287559286333  0.11594438566606212  0.4656610091048782  1.0000
  O   O7        1.0  0.834642031899142  0.9704274698474351  0.13321558225879004  1.0000
  O   O8        1.0  0.6554118782977172  0.3697677785168603  0.7193971855800223  1.0000
  O   O9        1.0  0.9487283460086541  0.33251611718514834  0.29275265019557134  1.0000
  O   O10       1.0  0.3257606124771683  0.7023206041332277  0.8647696887480691  1.0000
  O   O11       1.0  0.5054708277446565  0.4455284219408805  0.12136294823652734  1.0000
  O   O12       1.0  0.17899127617316998  0.21934097274136216  0.8846657318141014  1.0000
