data_image0
_chemical_formula_structural       TiSiTiCaSiO2SiO
_chemical_formula_sum              "Ti2 Si3 Ca1 O3"
_cell_length_a       3.7486989225689364
_cell_length_b       5.613825673465228
_cell_length_c       6.428997039794922
_cell_angle_alpha    106.2431958165645
_cell_angle_beta     107.04169842459135
_cell_angle_gamma    90.02105369509859

_space_group_name_H-M_alt    "P 1"
_space_group_IT_number       1

loop_
  _space_group_symop_operation_xyz
  'x, y, z'

loop_
  _atom_site_type_symbol
  _atom_site_label
  _atom_site_symmetry_multiplicity
  _atom_site_fract_x
  _atom_site_fract_y
  _atom_site_fract_z
  _atom_site_occupancy
  Ti  Ti1       1.0  0.11349706977821057  0.25111296243452236  0.7253366090106359  1.0000
  Si  Si1       1.0  0.34043368759628606  0.5629750385581918  0.17999385150617042  1.0000
  Ti  Ti2       1.0  0.050245891868518834  0.6795977412407583  0.5992975001673184  1.0000
  Ca  Ca1       1.0  0.7991316341786743  0.9959773376971096  0.09704227279955827  1.0000
  Si  Si2       1.0  0.5190255575447371  0.9575595336501775  0.5370056650340798  1.0000
  O   O1        1.0  0.22013868801569997  0.670100329176928  0.9393147713409621  1.0000
  O   O2        1.0  0.2698399644961932  0.2480756700022794  0.03869321535716219  1.0000
  Si  Si3       1.0  0.5015072048364073  0.3591921821964191  0.5023737110703177  1.0000
  O   O3        1.0  0.8635443269506716  0.605983028446809  0.22524228763989654  1.0000
