data_image0
_chemical_formula_structural       TiOTiCaSiO4SiO2CaO3
_chemical_formula_sum              "Ti2 O10 Ca2 Si2"
_cell_length_a       5.497288503671503
_cell_length_b       5.504946180490662
_cell_length_c       7.114965915679931
_cell_angle_alpha    104.23466277495213
_cell_angle_beta     104.29518636953554
_cell_angle_gamma    105.68771758995983

_space_group_name_H-M_alt    "P 1"
_space_group_IT_number       1

loop_
  _space_group_symop_operation_xyz
  'x, y, z'

loop_
  _atom_site_type_symbol
  _atom_site_label
  _atom_site_symmetry_multiplicity
  _atom_site_fract_x
  _atom_site_fract_y
  _atom_site_fract_z
  _atom_site_occupancy
  Ti  Ti1       1.0  0.7562703463132299  0.6508418075010333  0.34066288242436116  1.0000
  O   O1        1.0  0.8692979427674534  0.33699506045936045  0.22457468782268158  1.0000
  Ti  Ti2       1.0  0.7564758519252892  0.6506246430767783  0.840695594206176  1.0000
  Ca  Ca1       1.0  0.4282053357767207  0.97912512193128  0.09092983755922879  1.0000
  Si  Si1       1.0  0.07570436775591785  0.3310464095574415  0.09070568768167701  1.0000
  O   O2        1.0  0.07015973480446472  0.5376018699652424  0.9570954872485854  1.0000
  O   O3        1.0  0.8250987158349005  0.5820470075938955  0.590909606304603  1.0000
  O   O4        1.0  0.007032952070062309  0.028002945506710373  0.9328052756312458  1.0000
  O   O5        1.0  0.44265663734151994  0.7638447534950115  0.7245980019402999  1.0000
  Si  Si2       1.0  0.43702968646241147  0.9703831276471184  0.5909782706448617  1.0000
  O   O6        1.0  0.6874806355427472  0.7193172276244633  0.09079535485865793  1.0000
  O   O7        1.0  0.5056046142120434  0.27339533495048796  0.7489423076207291  1.0000
  Ca  Ca2       1.0  0.08469361105902135  0.3225227532325969  0.5902253929180357  1.0000
  O   O8        1.0  0.6433840319886592  0.9645113850953922  0.45706326556266685  1.0000
  O   O9        1.0  0.13353362318292095  0.9014192289916995  0.43269402940658025  1.0000
  O   O10       1.0  0.37907777382263713  0.3998448184331174  0.24912954131448212  1.0000
