data_image0
_chemical_formula_structural       SiO2Ca
_chemical_formula_sum              "Si1 O2 Ca1"
_cell_length_a       3.5105160475801305
_cell_length_b       3.780728798991132
_cell_length_c       5.681347370147705
_cell_angle_alpha    72.29302374308955
_cell_angle_beta     72.05033383459272
_cell_angle_gamma    62.908608554290055

_space_group_name_H-M_alt    "P 1"
_space_group_IT_number       1

loop_
  _space_group_symop_operation_xyz
  'x, y, z'

loop_
  _atom_site_type_symbol
  _atom_site_label
  _atom_site_symmetry_multiplicity
  _atom_site_fract_x
  _atom_site_fract_y
  _atom_site_fract_z
  _atom_site_occupancy
  Si  Si1       1.0  0.16453639696011324  0.47802357191183714  0.8206174419868937  1.0000
  O   O1        1.0  0.13722325012492534  0.8006071535363021  0.547387298213078  1.0000
  O   O2        1.0  0.9534077952740064  0.622183972034928  0.09702585001818657  1.0000
  Ca  Ca1       1.0  0.5629907663380528  0.17816682746466153  0.3223936260948573  1.0000
