data_image0
_chemical_formula_structural       CaTiSiO
_chemical_formula_sum              "Ca1 Ti1 Si1 O1"
_cell_length_a       3.885852866514982
_cell_length_b       3.889126037289582
_cell_length_c       5.897206783294679
_cell_angle_alpha    90.01897676995536
_cell_angle_beta     89.9778180496044
_cell_angle_gamma    119.99205459130562

_space_group_name_H-M_alt    "P 1"
_space_group_IT_number       1

loop_
  _space_group_symop_operation_xyz
  'x, y, z'

loop_
  _atom_site_type_symbol
  _atom_site_label
  _atom_site_symmetry_multiplicity
  _atom_site_fract_x
  _atom_site_fract_y
  _atom_site_fract_z
  _atom_site_occupancy
  Ca  Ca1       1.0  0.33530006475704915  0.7413879119675758  0.3876348490396822  1.0000
  Ti  Ti1       1.0  0.0018889931340373663  0.07479736444986904  0.9348902202356908  1.0000
  Si  Si1       1.0  0.6685908568430453  0.40834201165593115  0.7501484214720734  1.0000
  O   O1        1.0  0.0020371057854828194  0.07486933793672917  0.24093891359582603  1.0000
