data_image0
_chemical_formula_structural       OSiO2SiO2SiO2CaO
_chemical_formula_sum              "O8 Si3 Ca1"
_cell_length_a       4.851747891402289
_cell_length_b       4.848045204655364
_cell_length_c       6.86756706237793
_cell_angle_alpha    89.22975520411431
_cell_angle_beta     89.15413134717593
_cell_angle_gamma    64.7866526758917

_space_group_name_H-M_alt    "P 1"
_space_group_IT_number       1

loop_
  _space_group_symop_operation_xyz
  'x, y, z'

loop_
  _atom_site_type_symbol
  _atom_site_label
  _atom_site_symmetry_multiplicity
  _atom_site_fract_x
  _atom_site_fract_y
  _atom_site_fract_z
  _atom_site_occupancy
  O   O1        1.0  0.528328273305287  0.17807365035571676  0.4104298488290699  1.0000
  Si  Si1       1.0  0.3234583921200132  0.4507502557618708  0.6003509553712284  1.0000
  O   O2        1.0  0.051185646829359374  0.6557335054265759  0.4107151281007523  1.0000
  O   O3        1.0  0.5292194279901645  0.6563026376343877  0.5408791431057454  1.0000
  Si  Si2       1.0  0.9662579515655575  0.09442556867389368  0.8133869228888947  1.0000
  O   O4        1.0  0.11765313101061312  0.24526727478896723  0.6599310533324788  1.0000
  O   O5        1.0  0.6135737362360182  0.7384313107764682  0.1614920052938075  1.0000
  Si  Si3       1.0  0.6806109044121943  0.8070492490774395  0.3873389607975035  1.0000
  O   O6        1.0  0.03336122711064521  0.16272314602842836  0.03929680513546326  1.0000
  O   O7        1.0  0.11855458475458376  0.7234175314511573  0.7902890985325342  1.0000
  Ca  Ca1       1.0  0.3232750145806215  0.4509270164387092  0.1003075011141643  1.0000
  O   O8        1.0  0.5956842254564657  0.24581167811706311  0.7900288815448688  1.0000
