data_image0
_chemical_formula_structural       CaTiSiTiO6SiO
_chemical_formula_sum              "Ca1 Ti2 Si2 O7"
_cell_length_a       5.280617111985594
_cell_length_b       5.276016428879276
_cell_length_c       8.50446605682373
_cell_angle_alpha    72.10073390389559
_cell_angle_beta     72.07050255571511
_cell_angle_gamma    59.94101749188851

_space_group_name_H-M_alt    "P 1"
_space_group_IT_number       1

loop_
  _space_group_symop_operation_xyz
  'x, y, z'

loop_
  _atom_site_type_symbol
  _atom_site_label
  _atom_site_symmetry_multiplicity
  _atom_site_fract_x
  _atom_site_fract_y
  _atom_site_fract_z
  _atom_site_occupancy
  Ca  Ca1       1.0  0.8633767849758309  0.40603557757570463  0.2645738195812482  1.0000
  Ti  Ti1       1.0  0.4409523170882097  0.9829203875023063  0.5344971317389035  1.0000
  Si  Si1       1.0  0.6261306746822287  0.1687297197750182  0.9735494877012216  1.0000
  Ti  Ti2       1.0  0.2858372339115448  0.8290904578735552  0.9945622021564954  1.0000
  O   O1        1.0  0.825414849465087  0.7157795447530455  0.4486622959663427  1.0000
  O   O2        1.0  0.5524429110978136  0.8607000754824095  0.08081593136335459  1.0000
  O   O3        1.0  0.36325044426436887  0.9061245260909079  0.7645260615405154  1.0000
  O   O4        1.0  0.901413096535389  0.09616967955356515  0.080473350032289  1.0000
  O   O5        1.0  0.40938767514346963  0.3669961053964088  0.4489030291451115  1.0000
  O   O6        1.0  0.31729386888377836  0.4450436033765447  0.08015881987956675  1.0000
  Si  Si2       1.0  0.10070135147327108  0.6433635721734937  0.5555397451327536  1.0000
  O   O7        1.0  0.17433269201394178  0.9513952369326208  0.4481906498924419  1.0000
