data_image0
_chemical_formula_structural       CaOSiOTiCaO4
_chemical_formula_sum              "Ca2 O6 Si1 Ti1"
_cell_length_a       5.247453558069332
_cell_length_b       5.249992262894769
_cell_length_c       5.253162384033203
_cell_angle_alpha    60.481681565641765
_cell_angle_beta     60.445952173269546
_cell_angle_gamma    60.47082070660777

_space_group_name_H-M_alt    "P 1"
_space_group_IT_number       1

loop_
  _space_group_symop_operation_xyz
  'x, y, z'

loop_
  _atom_site_type_symbol
  _atom_site_label
  _atom_site_symmetry_multiplicity
  _atom_site_fract_x
  _atom_site_fract_y
  _atom_site_fract_z
  _atom_site_occupancy
  Ca  Ca1       1.0  0.16748891210154165  0.17463835161760985  0.9413867731734313  1.0000
  O   O1        1.0  0.15707024655966326  0.6396242518777241  0.5001878818376778  1.0000
  Si  Si1       1.0  0.9179288255900911  0.925708733680003  0.6922191718146591  1.0000
  O   O2        1.0  0.678895264094982  0.21165479736659534  0.8842407209075387  1.0000
  Ti  Ti1       1.0  0.41793567865876424  0.4256683190716032  0.19223845482676802  1.0000
  Ca  Ca2       1.0  0.6683482611182225  0.6765577924726046  0.4429230814361949  1.0000
  O   O3        1.0  0.20254606264827493  0.11920142768889551  0.4538249751814697  1.0000
  O   O4        1.0  0.7253956862830678  0.16168142976489935  0.4068422666218281  1.0000
  O   O5        1.0  0.6334427350456823  0.7320391819808382  0.9306295923321843  1.0000
  O   O6        1.0  0.11057128528281768  0.6896376934140791  0.9775795448103185  1.0000
