data_image0
_chemical_formula_structural       CaTiSiCaO6
_chemical_formula_sum              "Ca2 Ti1 Si1 O6"
_cell_length_a       5.316822001702193
_cell_length_b       5.315631620259848
_cell_length_c       5.317737102508545
_cell_angle_alpha    59.83259613267879
_cell_angle_beta     59.8453056691017
_cell_angle_gamma    59.808520266185454

_space_group_name_H-M_alt    "P 1"
_space_group_IT_number       1

loop_
  _space_group_symop_operation_xyz
  'x, y, z'

loop_
  _atom_site_type_symbol
  _atom_site_label
  _atom_site_symmetry_multiplicity
  _atom_site_fract_x
  _atom_site_fract_y
  _atom_site_fract_z
  _atom_site_occupancy
  Ca  Ca1       1.0  0.2069926486832253  0.7246181692227879  0.6245733563180357  1.0000
  Ti  Ti1       1.0  0.45695418476215  0.9745915618746998  0.8743805650266124  1.0000
  Si  Si1       1.0  0.9569888615847025  0.47459000625216885  0.37441364983861214  1.0000
  Ca  Ca2       1.0  0.7070735464073271  0.22466953174403861  0.12457733228608656  1.0000
  O   O1        1.0  0.7180012438756064  0.23530970044604338  0.6138380009799699  1.0000
  O   O2        1.0  0.19631458715018685  0.7136863368971135  0.135463479810679  1.0000
  O   O3        1.0  0.7179683377984214  0.7137417958145925  0.13535030787035135  1.0000
  O   O4        1.0  0.7179567519410837  0.7137005917752588  0.6137976320121923  1.0000
  O   O5        1.0  0.1963989579647178  0.23536884026875668  0.13535992871870775  1.0000
  O   O6        1.0  0.19627059954672657  0.2352779128386248  0.613888044446512  1.0000
