data_image0
_chemical_formula_structural       O2CaTiSiO2CaSiO3
_chemical_formula_sum              "O7 Ca2 Ti1 Si2"
_cell_length_a       5.553123789668137
_cell_length_b       5.73823877452265
_cell_length_c       6.351451873779297
_cell_angle_alpha    79.1280895420805
_cell_angle_beta     87.79388558153919
_cell_angle_gamma    59.18488996384383

_space_group_name_H-M_alt    "P 1"
_space_group_IT_number       1

loop_
  _space_group_symop_operation_xyz
  'x, y, z'

loop_
  _atom_site_type_symbol
  _atom_site_label
  _atom_site_symmetry_multiplicity
  _atom_site_fract_x
  _atom_site_fract_y
  _atom_site_fract_z
  _atom_site_occupancy
  O   O1        1.0  0.5870607551296584  0.26914230503673786  0.6947538497858751  1.0000
  O   O2        1.0  0.27313230468739014  0.8097282120424184  0.7063859974386507  1.0000
  Ca  Ca1       1.0  0.6400750240559303  0.878266633131563  0.586710147352007  1.0000
  Ti  Ti1       1.0  0.32175678631188565  0.764812431862816  0.03558786172252023  1.0000
  Si  Si1       1.0  0.6437977154283543  0.14336453470395125  0.9637495053369641  1.0000
  O   O3        1.0  0.5047552818287737  0.6535058331631924  0.35740690627790117  1.0000
  O   O4        1.0  0.6717238283541234  0.8407535045178505  0.9674320102672265  1.0000
  Ca  Ca2       1.0  0.9572423738845651  0.43140859311336455  0.21342969453863359  1.0000
  Si  Si2       1.0  0.3406705154109825  0.582380548849311  0.5579912742841768  1.0000
  O   O5        1.0  0.935464120680117  0.10720194318157346  0.05558707714431821  1.0000
  O   O6        1.0  0.37913506147834874  0.3570805058973369  0.0843065023826353  1.0000
  O   O7        1.0  0.06947113484616908  0.568684743148907  0.4920122715853235  1.0000
