data_image0
_chemical_formula_structural       TiOCaOSiO4
_chemical_formula_sum              "Ti1 O6 Ca1 Si1"
_cell_length_a       5.002396721428987
_cell_length_b       5.004652570155152
_cell_length_c       5.020224094390869
_cell_angle_alpha    90.03664646755482
_cell_angle_beta     89.97159574776433
_cell_angle_gamma    119.97698527051155

_space_group_name_H-M_alt    "P 1"
_space_group_IT_number       1

loop_
  _space_group_symop_operation_xyz
  'x, y, z'

loop_
  _atom_site_type_symbol
  _atom_site_label
  _atom_site_symmetry_multiplicity
  _atom_site_fract_x
  _atom_site_fract_y
  _atom_site_fract_z
  _atom_site_occupancy
  Ti  Ti1       1.0  0.6762027856953933  0.9384983293346301  0.7814973927333082  1.0000
  O   O1        1.0  0.37329074656037065  0.9950408624314712  0.5776172828902796  1.0000
  Ca  Ca1       1.0  0.009662899381215208  0.6053893627159833  0.28159012307053477  1.0000
  O   O2        1.0  0.6198344542957701  0.5789582140637802  0.5776895894675248  1.0000
  Si  Si1       1.0  0.3430416240135165  0.2720790779019186  0.7816179719279966  1.0000
  O   O3        1.0  0.37302075216881214  0.5793255745253423  0.9853693353945466  1.0000
  O   O4        1.0  0.619754479485299  0.24157085055736693  0.9855435187589529  1.0000
  O   O5        1.0  0.0357713237172286  0.9953154742189559  0.9854755861194207  1.0000
  O   O6        1.0  0.035670538259040735  0.24156400273224976  0.5777206272100174  1.0000
