data_image0
_chemical_formula_structural       O2TiCaOSiO3SiOCa
_chemical_formula_sum              "O7 Ti1 Ca2 Si2"
_cell_length_a       4.791830176641281
_cell_length_b       6.774579296643142
_cell_length_c       6.818686962127686
_cell_angle_alpha    119.17528627625622
_cell_angle_beta     104.8643223964102
_cell_angle_gamma    94.78667409980181

_space_group_name_H-M_alt    "P 1"
_space_group_IT_number       1

loop_
  _space_group_symop_operation_xyz
  'x, y, z'

loop_
  _atom_site_type_symbol
  _atom_site_label
  _atom_site_symmetry_multiplicity
  _atom_site_fract_x
  _atom_site_fract_y
  _atom_site_fract_z
  _atom_site_occupancy
  O   O1        1.0  0.8479819041668893  0.3809032601322042  0.3950157827374564  1.0000
  O   O2        1.0  0.3679144177845988  0.03406644064485002  0.20029931146578767  1.0000
  Ti  Ti1       1.0  0.21953341525848072  0.5931299001391086  0.614769384101114  1.0000
  Ca  Ca1       1.0  0.3662859005741052  0.07926582512196517  0.5798965816594102  1.0000
  O   O3        1.0  0.4493187995883131  0.48640661634946325  0.771939426388519  1.0000
  Si  Si1       1.0  0.7324041561308681  0.09391589833005007  0.24380578178603615  1.0000
  O   O4        1.0  0.35843182836735527  0.6926601079750809  0.45084018263404313  1.0000
  O   O5        1.0  0.8598781265159897  0.9613458223565381  0.3762158873566214  1.0000
  O   O6        1.0  0.24761689703332804  0.19902041107591228  0.9197937671370288  1.0000
  Si  Si2       1.0  0.11806869305293774  0.9768518751687637  0.9330027513733797  1.0000
  O   O7        1.0  0.7958979675116055  0.005401080020870808  0.991310582590546  1.0000
  Ca  Ca2       1.0  0.5793035886912987  0.5570862751326763  0.17083747105947103  1.0000
