data_image0
_chemical_formula_structural       SiCaOSiOTiO4
_chemical_formula_sum              "Si2 Ca1 O6 Ti1"
_cell_length_a       4.937551086382121
_cell_length_b       4.95913278598694
_cell_length_c       5.5032243728637695
_cell_angle_alpha    93.93038708218936
_cell_angle_beta     97.17157812465791
_cell_angle_gamma    101.87218257533114

_space_group_name_H-M_alt    "P 1"
_space_group_IT_number       1

loop_
  _space_group_symop_operation_xyz
  'x, y, z'

loop_
  _atom_site_type_symbol
  _atom_site_label
  _atom_site_symmetry_multiplicity
  _atom_site_fract_x
  _atom_site_fract_y
  _atom_site_fract_z
  _atom_site_occupancy
  Si  Si1       1.0  0.689493370611038  0.5386477171366956  0.37652717163999155  1.0000
  Ca  Ca1       1.0  0.15962896465870371  0.0956228276877243  0.5680796498531384  1.0000
  O   O1        1.0  0.4248547175172744  0.9303281290582054  0.8883184524760068  1.0000
  Si  Si2       1.0  0.7284098686088025  0.021319464810311852  0.05134038833039024  1.0000
  O   O2        1.0  0.35632698372900207  0.5225322971647512  0.3286688678815566  1.0000
  Ti  Ti1       1.0  0.14588670678801063  0.5977649892125461  0.9619243579245517  1.0000
  O   O3        1.0  0.9591382483605077  0.19403025689965067  0.9077388892403727  1.0000
  O   O4        1.0  0.8379330621613084  0.7454173019301535  0.16694814729520238  1.0000
  O   O5        1.0  0.7331776925361779  0.21323722447783247  0.31681028728098815  1.0000
  O   O6        1.0  0.883605900249937  0.6633344852659625  0.6336057176494645  1.0000
