data_image0
_chemical_formula_structural       Ca3SiO2TiOSiO3CaO6Si
_chemical_formula_sum              "Ca4 Si3 O12 Ti1"
_cell_length_a       6.079228457828737
_cell_length_b       6.088478969733452
_cell_length_c       8.05743408203125
_cell_angle_alpha    92.94410101143987
_cell_angle_beta     95.01616885352514
_cell_angle_gamma    87.54883218127019

_space_group_name_H-M_alt    "P 1"
_space_group_IT_number       1

loop_
  _space_group_symop_operation_xyz
  'x, y, z'

loop_
  _atom_site_type_symbol
  _atom_site_label
  _atom_site_symmetry_multiplicity
  _atom_site_fract_x
  _atom_site_fract_y
  _atom_site_fract_z
  _atom_site_occupancy
  Ca  Ca1       1.0  0.39560839169992423  0.27896853200668276  0.3697091532079512  1.0000
  Ca  Ca2       1.0  0.6336989166581936  0.8327399601383233  0.6579192847109421  1.0000
  Ca  Ca3       1.0  0.054860371630460654  0.5313908943314187  0.09586429705949785  1.0000
  Si  Si1       1.0  0.1614881384488673  0.7275119023276585  0.6059487692945449  1.0000
  O   O1        1.0  0.15035791169241025  0.9442895564594324  0.48004917364826283  1.0000
  O   O2        1.0  0.8452201770256148  0.8381322874451912  0.2329514793718583  1.0000
  Ti  Ti1       1.0  0.5812046982166958  0.7579130880872552  0.10311825716908099  1.0000
  O   O3        1.0  0.42490497923780307  0.5544379989768874  0.18450834075380637  1.0000
  Si  Si2       1.0  0.9310701487451866  0.04725942588229528  0.36164498472929923  1.0000
  O   O4        1.0  0.21324684051835718  0.8428113197124756  0.7990363398720323  1.0000
  O   O5        1.0  0.39849886348372565  0.014813561064353978  0.08136581553398765  1.0000
  O   O6        1.0  0.3786768487255778  0.5760903049103239  0.5642841979945786  1.0000
  Ca  Ca4       1.0  0.7867176246167707  0.3457963964509819  0.7318705302524107  1.0000
  O   O7        1.0  0.5104214784382594  0.14276773213276686  0.790427878585457  1.0000
  O   O8        1.0  0.023952426955641145  0.2544611819168956  0.27535876206825843  1.0000
  O   O9        1.0  0.9256677613357067  0.6174288563318019  0.5956259175821677  1.0000
  O   O10       1.0  0.7122902199855335  0.64495379107526  0.9239302796806197  1.0000
  O   O11       1.0  0.098884322617025  0.2649985642361736  0.89236277941345  1.0000
  O   O12       1.0  0.7293070736761792  0.11139655559209459  0.48135659354144583  1.0000
  Si  Si3       1.0  0.3008181129294696  0.08448012775142155  0.8889547999251923  1.0000
