data_image0
_chemical_formula_structural       Ca2SiCaOSiTiSiO3SiO8
_chemical_formula_sum              "Ca3 Si4 O12 Ti1"
_cell_length_a       5.324949619839899
_cell_length_b       6.817456993641643
_cell_length_c       6.821272373199464
_cell_angle_alpha    86.5724768694028
_cell_angle_beta     79.75416537672695
_cell_angle_gamma    79.76525691555105

_space_group_name_H-M_alt    "P 1"
_space_group_IT_number       1

loop_
  _space_group_symop_operation_xyz
  'x, y, z'

loop_
  _atom_site_type_symbol
  _atom_site_label
  _atom_site_symmetry_multiplicity
  _atom_site_fract_x
  _atom_site_fract_y
  _atom_site_fract_z
  _atom_site_occupancy
  Ca  Ca1       1.0  0.352615396149063  0.6270746198372894  0.5832716153356411  1.0000
  Ca  Ca2       1.0  0.35238336283753546  0.23675587282856866  0.972939269449936  1.0000
  Si  Si1       1.0  0.368782977312566  0.7071174116578103  0.0834153386432963  1.0000
  Ca  Ca3       1.0  0.8523686787443711  0.024408316817597482  0.18532318625701663  1.0000
  O   O1        1.0  0.7727870379902204  0.45376607202638075  0.4903925766377199  1.0000
  Si  Si2       1.0  0.8428529852067377  0.9452600002556817  0.682324288592968  1.0000
  Ti  Ti1       1.0  0.852482562720984  0.42351163833534294  0.7863820348689574  1.0000
  Si  Si3       1.0  0.3361873058965054  0.12675413686097112  0.5025556883321081  1.0000
  O   O2        1.0  0.24286144202225055  0.30439650065480506  0.6594409495954591  1.0000
  O   O3        1.0  0.5876691224080766  0.9574279239170755  0.564157608875742  1.0000
  O   O4        1.0  0.44105859174646056  0.19746728917067746  0.28105665378151473  1.0000
  Si  Si4       1.0  0.8620779171980668  0.5273771547715215  0.26475954705993865  1.0000
  O   O5        1.0  0.9265785419984386  0.3618802549624002  0.09477676024695186  1.0000
  O   O6        1.0  0.11730679101798937  0.6455717057736637  0.25270166559669494  1.0000
  O   O7        1.0  0.6091012547409086  0.7043525250653694  0.21640164022307487  1.0000
  O   O8        1.0  0.4621621806108956  0.5502327793764267  0.9057892384469973  1.0000
  O   O9        1.0  0.931978717963186  0.7195211852017398  0.7559374606777398  1.0000
  O   O10       1.0  0.7783283393062248  0.11516335087483362  0.8479003133543443  1.0000
  O   O11       1.0  0.09594730736326125  0.9935434615156061  0.5055330040208927  1.0000
  O   O12       1.0  0.2637609017662441  0.9285873047586025  0.012434841923572375  1.0000
