data_image0
_chemical_formula_structural       Si2CaOCa
_chemical_formula_sum              "Si2 Ca2 O1"
_cell_length_a       4.181340965103565
_cell_length_b       4.666569850993882
_cell_length_c       4.665777683258057
_cell_angle_alpha    90.02948843212668
_cell_angle_beta     90.02061601755628
_cell_angle_gamma    90.02704322257611

_space_group_name_H-M_alt    "P 1"
_space_group_IT_number       1

loop_
  _space_group_symop_operation_xyz
  'x, y, z'

loop_
  _atom_site_type_symbol
  _atom_site_label
  _atom_site_symmetry_multiplicity
  _atom_site_fract_x
  _atom_site_fract_y
  _atom_site_fract_z
  _atom_site_occupancy
  Si  Si1       1.0  0.2656874117150694  0.7794458192345635  0.38780218255464644  1.0000
  Si  Si2       1.0  0.2519402868313612  0.2801583806695846  0.8878604330851989  1.0000
  Ca  Ca1       1.0  0.7559686307644473  0.2795962667645024  0.3877986308970362  1.0000
  O   O1        1.0  0.8488220964104782  0.27971447973663355  0.8877979552752883  1.0000
  Ca  Ca2       1.0  0.7560166527587594  0.7797303960621653  0.88780405277024  1.0000
