data_image0
_chemical_formula_structural       CaSiTiCaO6
_chemical_formula_sum              "Ca2 Si1 Ti1 O6"
_cell_length_a       5.265384900222438
_cell_length_b       5.26671756853215
_cell_length_c       5.304569244384766
_cell_angle_alpha    119.69648468473126
_cell_angle_beta     119.77244894019745
_cell_angle_gamma    90.01728908863608

_space_group_name_H-M_alt    "P 1"
_space_group_IT_number       1

loop_
  _space_group_symop_operation_xyz
  'x, y, z'

loop_
  _atom_site_type_symbol
  _atom_site_label
  _atom_site_symmetry_multiplicity
  _atom_site_fract_x
  _atom_site_fract_y
  _atom_site_fract_z
  _atom_site_occupancy
  Ca  Ca1       1.0  0.7861432083107771  0.4226003689208457  0.7302697277946351  1.0000
  Si  Si1       1.0  0.036208042780439556  0.1729012204296622  0.23007431909768475  1.0000
  Ti  Ti1       1.0  0.5362516098069692  0.6729314497367461  0.23012225089229615  1.0000
  Ca  Ca2       1.0  0.2863248065927721  0.9231739023865523  0.7300257779556145  1.0000
  O   O1        1.0  0.3141959582097228  0.37235045626210783  0.2302126007028155  1.0000
  O   O2        1.0  0.2761902254464722  0.4120325941244384  0.7095945132910669  1.0000
  O   O3        1.0  0.8371688459984558  0.4511231479131862  0.23059438921519834  1.0000
  O   O4        1.0  0.7964676213757367  0.9339014629663268  0.7507131926140329  1.0000
  O   O5        1.0  0.7581102951222033  0.9734878702506555  0.2299344646768435  1.0000
  O   O6        1.0  0.23529237576367326  0.8945866700015673  0.22938563155591524  1.0000
