data_image0
_chemical_formula_structural       OSiTiOCaO4
_chemical_formula_sum              "O6 Si1 Ti1 Ca1"
_cell_length_a       5.003571033533629
_cell_length_b       5.03431452488477
_cell_length_c       5.031878471374512
_cell_angle_alpha    119.89655470375831
_cell_angle_beta     89.99972929690058
_cell_angle_gamma    89.90487846112886

_space_group_name_H-M_alt    "P 1"
_space_group_IT_number       1

loop_
  _space_group_symop_operation_xyz
  'x, y, z'

loop_
  _atom_site_type_symbol
  _atom_site_label
  _atom_site_symmetry_multiplicity
  _atom_site_fract_x
  _atom_site_fract_y
  _atom_site_fract_z
  _atom_site_occupancy
  O   O1        1.0  0.9341272983674954  0.303504595268169  0.7892619202004137  1.0000
  Si  Si1       1.0  0.7306744397596926  0.2729238920248429  0.4821386155888677  1.0000
  Ti  Ti1       1.0  0.7306697695845726  0.6065907474087245  0.148697449913575  1.0000
  O   O2        1.0  0.9342765921615334  0.965557830907415  0.20565293713471916  1.0000
  Ca  Ca1       1.0  0.23069918366942027  0.9396563871586255  0.8154495259765766  1.0000
  O   O3        1.0  0.5270786873537385  0.5496254377767573  0.7893170606538736  1.0000
  O   O4        1.0  0.5271347203111825  0.9661134085868965  0.45135146381362756  1.0000
  O   O5        1.0  0.9341372114995089  0.5492002339834509  0.45110038542413045  1.0000
  O   O6        1.0  0.5272248368979906  0.30429818306820655  0.20567721300667505  1.0000
