data_image0
_chemical_formula_structural       TiSiO4
_chemical_formula_sum              "Ti1 Si1 O4"
_cell_length_a       5.609646905980526
_cell_length_b       5.6073427480093585
_cell_length_c       5.6373748779296875
_cell_angle_alpha    119.82176261290975
_cell_angle_beta     119.88621155346316
_cell_angle_gamma    89.95734192843665

_space_group_name_H-M_alt    "P 1"
_space_group_IT_number       1

loop_
  _space_group_symop_operation_xyz
  'x, y, z'

loop_
  _atom_site_type_symbol
  _atom_site_label
  _atom_site_symmetry_multiplicity
  _atom_site_fract_x
  _atom_site_fract_y
  _atom_site_fract_z
  _atom_site_occupancy
  Ti  Ti1       1.0  0.7749006824463323  0.13961922207065733  0.89421989344495  1.0000
  Si  Si1       1.0  0.024847872708976464  0.8895284346565526  0.39435903509100945  1.0000
  O   O1        1.0  0.38030352355823654  0.007802370303438683  0.6313789388727874  1.0000
  O   O2        1.0  0.9062242174920966  0.007137227486317721  0.6310262089486075  1.0000
  O   O3        1.0  0.9070579697469194  0.008706009355856893  0.15797869719830201  1.0000
  O   O4        1.0  0.9062026701632153  0.5341636442089411  0.1565522810488319  1.0000
