data_image0
_chemical_formula_structural       Ca2TiO6Si
_chemical_formula_sum              "Ca2 Ti1 O6 Si1"
_cell_length_a       5.2676231524898744
_cell_length_b       5.26859387791471
_cell_length_c       5.274445533752442
_cell_angle_alpha    90.31235387480966
_cell_angle_beta     119.83662689088608
_cell_angle_gamma    119.88909741115167

_space_group_name_H-M_alt    "P 1"
_space_group_IT_number       1

loop_
  _space_group_symop_operation_xyz
  'x, y, z'

loop_
  _atom_site_type_symbol
  _atom_site_label
  _atom_site_symmetry_multiplicity
  _atom_site_fract_x
  _atom_site_fract_y
  _atom_site_fract_z
  _atom_site_occupancy
  Ca  Ca1       1.0  0.4698301058268133  0.38644273666920503  0.6628990631537235  1.0000
  Ca  Ca2       1.0  0.4622115432587732  0.8866529285672712  0.15553696089136657  1.0000
  Ti  Ti1       1.0  0.9659929456910002  0.636546152943122  0.40919190012692147  1.0000
  O   O1        1.0  0.9666031289162903  0.4053237367403285  0.699686800750221  1.0000
  O   O2        1.0  0.487802779136454  0.9265008030309428  0.7001616085352963  1.0000
  O   O3        1.0  0.022699090402322496  0.3755773365460739  0.20435034810876807  1.0000
  O   O4        1.0  0.909318593544875  0.8975364814758789  0.6141026332508055  1.0000
  O   O5        1.0  0.9652540524617039  0.8677445483365481  0.1186035203607398  1.0000
  O   O6        1.0  0.4441830184190362  0.3466376409730223  0.11820599513792676  1.0000
  Si  Si1       1.0  0.965981832711019  0.13652937233121107  0.9091974121828662  1.0000
