data_image0
_chemical_formula_structural       Ca2Si2O2
_chemical_formula_sum              "Ca2 Si2 O2"
_cell_length_a       3.8257732391784427
_cell_length_b       3.825399174810901
_cell_length_c       6.786914825439454
_cell_angle_alpha    89.94624891575718
_cell_angle_beta     89.99972929689525
_cell_angle_gamma    89.95264197453618

_space_group_name_H-M_alt    "P 1"
_space_group_IT_number       1

loop_
  _space_group_symop_operation_xyz
  'x, y, z'

loop_
  _atom_site_type_symbol
  _atom_site_label
  _atom_site_symmetry_multiplicity
  _atom_site_fract_x
  _atom_site_fract_y
  _atom_site_fract_z
  _atom_site_occupancy
  Ca  Ca1       1.0  0.05702985879104441  0.2589083520586663  0.9459652835261672  1.0000
  Ca  Ca2       1.0  0.05697281191684297  0.2590242136649758  0.4488820785476066  1.0000
  Si  Si1       1.0  0.5568632702127316  0.7589984747436423  0.1974926473197294  1.0000
  Si  Si2       1.0  0.5570931535822872  0.7589131824347561  0.6986081281969374  1.0000
  O   O1        1.0  0.5568068082198655  0.25946231810724973  0.6969550712987582  1.0000
  O   O2        1.0  0.056285058061302976  0.7591154487021535  0.6971107835190049  1.0000
