data_image0
_chemical_formula_structural       CaTiCaO2SiOSiOTiO5SiO
_chemical_formula_sum              "Ca2 Ti2 O10 Si3"
_cell_length_a       5.525500760031694
_cell_length_b       6.578575414264372
_cell_length_c       6.651958465576172
_cell_angle_alpha    108.19735875319115
_cell_angle_beta     105.89256863607518
_cell_angle_gamma    95.84646669002703

_space_group_name_H-M_alt    "P 1"
_space_group_IT_number       1

loop_
  _space_group_symop_operation_xyz
  'x, y, z'

loop_
  _atom_site_type_symbol
  _atom_site_label
  _atom_site_symmetry_multiplicity
  _atom_site_fract_x
  _atom_site_fract_y
  _atom_site_fract_z
  _atom_site_occupancy
  Ca  Ca1       1.0  0.8709154371858425  0.08795594786641721  0.420059109958722  1.0000
  Ti  Ti1       1.0  0.20076125973981646  0.9687655782740175  0.922063727571352  1.0000
  Ca  Ca2       1.0  0.4708658326394273  0.5403401434627605  0.9195338832195606  1.0000
  O   O1        1.0  0.9255032822080624  0.7280544745103363  0.3257961894444046  1.0000
  O   O2        1.0  0.16855780858972685  0.443079607982027  0.5634409968622051  1.0000
  Si  Si1       1.0  0.6579662033766853  0.09068490773164149  0.8805032771614261  1.0000
  O   O3        1.0  0.8188484290180593  0.3463416601925713  0.030923762325088307  1.0000
  Si  Si2       1.0  0.038942345499259796  0.5765360404910851  0.14593541003985264  1.0000
  O   O4        1.0  0.8150401763343967  0.9747032925088241  0.7154613842192217  1.0000
  Ti  Ti2       1.0  0.9332496982483234  0.6623220157907806  0.6120982542600881  1.0000
  O   O5        1.0  0.32347308625712407  0.5184552256163107  0.24214523489578094  1.0000
  O   O6        1.0  0.5996024324384571  0.9465467247027611  0.03231789345498127  1.0000
  O   O7        1.0  0.06973162742978312  0.6653757164949975  0.9507251837696064  1.0000
  O   O8        1.0  0.19231112761119318  0.10955858149654743  0.2438052731736057  1.0000
  O   O9        1.0  0.3722479537339813  0.134952191637477  0.7696659547121003  1.0000
  Si  Si3       1.0  0.3418694627639897  0.3587283020964057  0.4001530582508286  1.0000
  O   O10       1.0  0.6374993300293561  0.3885012046054452  0.5517899108038641  1.0000
