data_image0
_chemical_formula_structural       TiCaTiCaOSiTiOSi
_chemical_formula_sum              "Ti3 Ca2 O2 Si2"
_cell_length_a       3.9599428045600007
_cell_length_b       3.974391721023727
_cell_length_c       10.064166069030762
_cell_angle_alpha    90.00605405238448
_cell_angle_beta     89.96051035054826
_cell_angle_gamma    89.96986087953411

_space_group_name_H-M_alt    "P 1"
_space_group_IT_number       1

loop_
  _space_group_symop_operation_xyz
  'x, y, z'

loop_
  _atom_site_type_symbol
  _atom_site_label
  _atom_site_symmetry_multiplicity
  _atom_site_fract_x
  _atom_site_fract_y
  _atom_site_fract_z
  _atom_site_occupancy
  Ti  Ti1       1.0  0.15502138169429602  0.17942590267610775  0.9414170696275717  1.0000
  Ca  Ca1       1.0  0.6548523739422967  0.679484771976761  0.06844588019608099  1.0000
  Ti  Ti2       1.0  0.15488241957264456  0.6796353692154907  0.366054287972306  1.0000
  Ca  Ca2       1.0  0.15447422391696053  0.17978309807227  0.6402725376210049  1.0000
  O   O1        1.0  0.6549990360486259  0.17945169594802668  0.9320506594503737  1.0000
  Si  Si1       1.0  0.6546742179968819  0.6797052970237266  0.5358787324910588  1.0000
  Ti  Ti3       1.0  0.6548333436801046  0.1796376224176284  0.3665360325168393  1.0000
  O   O2        1.0  0.15497462083125899  0.6794430712186591  0.9328262804025457  1.0000
  Si  Si2       1.0  0.15499310282331788  0.1795689839286266  0.20216152918673125  1.0000
