data_image0
_chemical_formula_structural       SiCaO
_chemical_formula_sum              "Si1 Ca1 O1"
_cell_length_a       3.4998845612782667
_cell_length_b       3.5151018654231563
_cell_length_c       5.402586936950684
_cell_angle_alpha    71.2205327158893
_cell_angle_beta     71.17271546177446
_cell_angle_gamma    60.19653679911272

_space_group_name_H-M_alt    "P 1"
_space_group_IT_number       1

loop_
  _space_group_symop_operation_xyz
  'x, y, z'

loop_
  _atom_site_type_symbol
  _atom_site_label
  _atom_site_symmetry_multiplicity
  _atom_site_fract_x
  _atom_site_fract_y
  _atom_site_fract_z
  _atom_site_occupancy
  Si  Si1       1.0  0.16708194905193796  0.748532931866505  0.4545306989753838  1.0000
  Ca  Ca1       1.0  0.6577926318739382  0.2373914715801427  0.9877829427782776  1.0000
  O   O1        1.0  0.05550208508011105  0.6375976997635295  0.7917526978874313  1.0000
