data_image0
_chemical_formula_structural       OCaSi2
_chemical_formula_sum              "O1 Ca1 Si2"
_cell_length_a       3.7681335972881063
_cell_length_b       3.7667493567101626
_cell_length_c       6.335862636566162
_cell_angle_alpha    72.70089447505015
_cell_angle_beta     72.70967082382832
_cell_angle_gamma    59.932120716944596

_space_group_name_H-M_alt    "P 1"
_space_group_IT_number       1

loop_
  _space_group_symop_operation_xyz
  'x, y, z'

loop_
  _atom_site_type_symbol
  _atom_site_label
  _atom_site_symmetry_multiplicity
  _atom_site_fract_x
  _atom_site_fract_y
  _atom_site_fract_z
  _atom_site_occupancy
  O   O1        1.0  0.05602806926232261  0.3947169757701062  0.33212036145692114  1.0000
  Ca  Ca1       1.0  0.4413255338365488  0.7798551375654859  0.17580038991631614  1.0000
  Si  Si1       1.0  0.9616805747831985  0.2997491273396701  0.6159984105687376  1.0000
  Si  Si2       1.0  0.23965093070121438  0.5774510556282136  0.7821683846173192  1.0000
