data_image0
_chemical_formula_structural       OCaTiOCaTiOSiO2SiO5
_chemical_formula_sum              "O10 Ca2 Ti2 Si2"
_cell_length_a       5.499269532277884
_cell_length_b       6.38293139250169
_cell_length_c       6.39682388305664
_cell_angle_alpha    106.26297507908255
_cell_angle_beta     102.35770744899887
_cell_angle_gamma    106.77955022070405

_space_group_name_H-M_alt    "P 1"
_space_group_IT_number       1

loop_
  _space_group_symop_operation_xyz
  'x, y, z'

loop_
  _atom_site_type_symbol
  _atom_site_label
  _atom_site_symmetry_multiplicity
  _atom_site_fract_x
  _atom_site_fract_y
  _atom_site_fract_z
  _atom_site_occupancy
  O   O1        1.0  0.8056856186709189  0.921239438775673  0.7700212933459655  1.0000
  Ca  Ca1       1.0  0.28443372267059747  0.9417808034956737  0.8585873066315476  1.0000
  Ti  Ti1       1.0  0.24197083468626085  0.2510093708639858  0.5036802054792182  1.0000
  O   O2        1.0  0.8327251867141733  0.1708712966663711  0.46045061136538956  1.0000
  Ca  Ca2       1.0  0.46314953879152637  0.7651119646234571  0.36539756649079547  1.0000
  Ti  Ti2       1.0  0.8554746927090778  0.2655018818821399  0.8078229295896138  1.0000
  O   O3        1.0  0.7246306639672438  0.2624771832370472  0.07270487710911097  1.0000
  Si  Si1       1.0  0.7957947019035605  0.3738370403614402  0.3512760277415538  1.0000
  O   O4        1.0  0.5389089693565638  0.4342016721008177  0.41126581101569054  1.0000
  O   O5        1.0  0.5403764819047034  0.7746181898011183  0.04145383698940409  1.0000
  Si  Si2       1.0  0.8133932586170938  0.8171064779101076  0.9818953281469022  1.0000
  O   O6        1.0  0.10571760105275683  0.5683037186602125  0.47168236271393144  1.0000
  O   O7        1.0  0.8918991626606634  0.5839197250400158  0.8863055496939242  1.0000
  O   O8        1.0  0.09695928465415027  0.0007983291060727958  0.1980572284244993  1.0000
  O   O9        1.0  0.19879705400408854  0.31194743815536297  0.8188000082532612  1.0000
  O   O10       1.0  0.44247987184419607  0.09997117048362589  0.6111269553256935  1.0000
