data_image0
_chemical_formula_structural       SiTiO5CaOCa
_chemical_formula_sum              "Si1 Ti1 O6 Ca2"
_cell_length_a       5.257444848419227
_cell_length_b       5.260039010163939
_cell_length_c       5.277698993682861
_cell_angle_alpha    119.97832326956134
_cell_angle_beta     119.91946401627044
_cell_angle_gamma    90.10447727180322

_space_group_name_H-M_alt    "P 1"
_space_group_IT_number       1

loop_
  _space_group_symop_operation_xyz
  'x, y, z'

loop_
  _atom_site_type_symbol
  _atom_site_label
  _atom_site_symmetry_multiplicity
  _atom_site_fract_x
  _atom_site_fract_y
  _atom_site_fract_z
  _atom_site_occupancy
  Si  Si1       1.0  0.3779248249843257  0.09408614394036743  0.4808650169396153  1.0000
  Ti  Ti1       1.0  0.8778238165579851  0.5940543051423888  0.48074976547201953  1.0000
  O   O1        1.0  0.10065170634139364  0.29421775519300675  0.48109846629794556  1.0000
  O   O2        1.0  0.13813809417050907  0.8543381951439151  0.0017629278578120905  1.0000
  O   O3        1.0  0.6175963710414855  0.33393048361574823  0.9598905629192702  1.0000
  O   O4        1.0  0.6551445860772572  0.8939989205324992  0.48044316916492813  1.0000
  O   O5        1.0  0.5777788896311139  0.37140624613913975  0.4807210165690791  1.0000
  Ca  Ca1       1.0  0.12797801049995614  0.34491880734257613  0.9806747064996604  1.0000
  O   O6        1.0  0.17808745231627068  0.8168061044250942  0.48099354770265834  1.0000
  Ca  Ca2       1.0  0.6276888548224842  0.8430932031914852  0.9806134320095564  1.0000
