data_image0
_chemical_formula_structural       OCa2O2CaTiCaSiO5SiO
_chemical_formula_sum              "O9 Ca4 Ti1 Si2"
_cell_length_a       6.146883870608269
_cell_length_b       5.914110635614996
_cell_length_c       6.780388355255128
_cell_angle_alpha    93.02762057670142
_cell_angle_beta     97.6157040149224
_cell_angle_gamma    108.81571185902824

_space_group_name_H-M_alt    "P 1"
_space_group_IT_number       1

loop_
  _space_group_symop_operation_xyz
  'x, y, z'

loop_
  _atom_site_type_symbol
  _atom_site_label
  _atom_site_symmetry_multiplicity
  _atom_site_fract_x
  _atom_site_fract_y
  _atom_site_fract_z
  _atom_site_occupancy
  O   O1        1.0  0.6533506685328223  0.4804045912597746  0.7514182642425463  1.0000
  Ca  Ca1       1.0  0.7013812513257687  0.8896912645603552  0.7011850976994185  1.0000
  Ca  Ca2       1.0  0.056320180407022344  0.6471156018143508  0.3961609998576131  1.0000
  O   O2        1.0  0.9540695360466006  0.6978674146121945  0.05381320551339104  1.0000
  O   O3        1.0  0.9055138224617318  0.22191521122011068  0.9234499262339929  1.0000
  Ca  Ca3       1.0  0.2687567309300878  0.23736669516863718  0.6028155242243866  1.0000
  Ti  Ti1       1.0  0.9131753932589319  0.057487567827030406  0.18253965867223768  1.0000
  Ca  Ca4       1.0  0.5288495885879357  0.5175178288775815  0.07459353103109807  1.0000
  Si  Si1       1.0  0.9215013483049188  0.49336521566111463  0.8617151878417889  1.0000
  O   O4        1.0  0.9310670940489604  0.9493854946150888  0.4620476291301156  1.0000
  O   O5        1.0  0.532287320040444  0.8903924302671432  0.10827609699834732  1.0000
  O   O6        1.0  0.7413711444071087  0.3064174254876186  0.2946461052792292  1.0000
  O   O7        1.0  0.42945774461088704  0.9536903361814011  0.4817755345144625  1.0000
  O   O8        1.0  0.29231113382970386  0.21023498623435957  0.22815426601928232  1.0000
  Si  Si2       1.0  0.49481992023502147  0.07957860692065281  0.2768855028379332  1.0000
  O   O9        1.0  0.1268902043388364  0.5504388425134031  0.7191419152409911  1.0000
