data_image0
_chemical_formula_structural       OTiOCaSiO3SiTiO2
_chemical_formula_sum              "O7 Ti2 Ca1 Si2"
_cell_length_a       5.659169398784177
_cell_length_b       5.665624673473769
_cell_length_c       7.596189498901368
_cell_angle_alpha    67.78511837418137
_cell_angle_beta     68.29278111247467
_cell_angle_gamma    58.69256786204189

_space_group_name_H-M_alt    "P 1"
_space_group_IT_number       1

loop_
  _space_group_symop_operation_xyz
  'x, y, z'

loop_
  _atom_site_type_symbol
  _atom_site_label
  _atom_site_symmetry_multiplicity
  _atom_site_fract_x
  _atom_site_fract_y
  _atom_site_fract_z
  _atom_site_occupancy
  O   O1        1.0  0.38181562643210637  0.9346464391253377  0.12151720558711451  1.0000
  Ti  Ti1       1.0  0.3417136622520575  0.11332820502242838  0.4918966258058295  1.0000
  O   O2        1.0  0.9510586141701978  0.2503257140221364  0.6241074512830135  1.0000
  Ca  Ca1       1.0  0.7957694970150838  0.9172419276868056  0.864684232080615  1.0000
  Si  Si1       1.0  0.6638655801548383  0.5378678409611664  0.6717948079364298  1.0000
  O   O3        1.0  0.4980900436329777  0.4105458984575307  0.8784609943904901  1.0000
  O   O4        1.0  0.47592483635131  0.6790174958068645  0.4948185980843223  1.0000
  O   O5        1.0  0.8788032578021435  0.5581604898082323  0.16193629750446456  1.0000
  Si  Si2       1.0  0.5463672503972825  0.6388002432118921  0.2695420108575067  1.0000
  Ti  Ti2       1.0  0.2697900725937652  0.30203639603660215  0.1588575871016488  1.0000
  O   O6        1.0  0.6956618072944165  0.8152980068789147  0.6533465066270518  1.0000
  O   O7        1.0  0.45321442035750237  0.40236126254544224  0.2921844314776861  1.0000
