data_image0
_chemical_formula_structural       CaTiOSi
_chemical_formula_sum              "Ca1 Ti1 O1 Si1"
_cell_length_a       3.984083246712086
_cell_length_b       4.396193214912733
_cell_length_c       4.394604682922363
_cell_angle_alpha    120.04819746013435
_cell_angle_beta     90.0225831100399
_cell_angle_gamma    90.04874956778147

_space_group_name_H-M_alt    "P 1"
_space_group_IT_number       1

loop_
  _space_group_symop_operation_xyz
  'x, y, z'

loop_
  _atom_site_type_symbol
  _atom_site_label
  _atom_site_symmetry_multiplicity
  _atom_site_fract_x
  _atom_site_fract_y
  _atom_site_fract_z
  _atom_site_occupancy
  Ca  Ca1       1.0  0.3990953890756674  0.9056317032559531  0.9043848264556343  1.0000
  Ti  Ti1       1.0  0.8987445306342634  0.2386114556964335  0.5710851278540933  1.0000
  O   O1        1.0  0.39900528265987756  0.23850049866643808  0.570722520081404  1.0000
  Si  Si1       1.0  0.9000492097853501  0.5722119198589465  0.2377954942531422  1.0000
