data_image0
_chemical_formula_structural       CaSiTiO
_chemical_formula_sum              "Ca1 Si1 Ti1 O1"
_cell_length_a       3.2102351944011893
_cell_length_b       3.228938018468501
_cell_length_c       6.67162847518921
_cell_angle_alpha    103.998291050915
_cell_angle_beta     103.81857603556239
_cell_angle_gamma    90.06040179481249

_space_group_name_H-M_alt    "P 1"
_space_group_IT_number       1

loop_
  _space_group_symop_operation_xyz
  'x, y, z'

loop_
  _atom_site_type_symbol
  _atom_site_label
  _atom_site_symmetry_multiplicity
  _atom_site_fract_x
  _atom_site_fract_y
  _atom_site_fract_z
  _atom_site_occupancy
  Ca  Ca1       1.0  0.03739102005708286  0.8141879237656138  0.7192455177990836  1.0000
  Si  Si1       1.0  0.3463689478744946  0.12450879834317266  0.33894793607110657  1.0000
  Ti  Ti1       1.0  0.749402663470932  0.527044963962252  0.14416260314846405  1.0000
  O   O1        1.0  0.5996196140908584  0.37664376877811173  0.8439222991714898  1.0000
