data_image0
_chemical_formula_structural       OCaOCaO3SiO2TiOSiO
_chemical_formula_sum              "O9 Ca2 Si2 Ti1"
_cell_length_a       5.055114160143241
_cell_length_b       5.9525320201946785
_cell_length_c       6.847474575042725
_cell_angle_alpha    102.0299190910202
_cell_angle_beta     97.1973698317279
_cell_angle_gamma    90.47041098150348

_space_group_name_H-M_alt    "P 1"
_space_group_IT_number       1

loop_
  _space_group_symop_operation_xyz
  'x, y, z'

loop_
  _atom_site_type_symbol
  _atom_site_label
  _atom_site_symmetry_multiplicity
  _atom_site_fract_x
  _atom_site_fract_y
  _atom_site_fract_z
  _atom_site_occupancy
  O   O1        1.0  0.9649778922674549  0.3823859988557975  0.8138159183444793  1.0000
  Ca  Ca1       1.0  0.4974859477412571  0.6273955144552295  0.40560604367218217  1.0000
  O   O2        1.0  0.22295778133485625  0.7875014031239418  0.009024192936986974  1.0000
  Ca  Ca2       1.0  0.9616693845771739  0.10403543925071393  0.21515220694843437  1.0000
  O   O3        1.0  0.14365238918621365  0.9564130186946219  0.474088106311226  1.0000
  O   O4        1.0  0.48012363471088987  0.5528934398745695  0.7090031573885648  1.0000
  O   O5        1.0  0.892575910620787  0.9225592862850067  0.5597983913969662  1.0000
  Si  Si1       1.0  0.4964428748421973  0.7718277234960118  0.8919598643684327  1.0000
  O   O6        1.0  0.12233454829855205  0.4562879182849713  0.20704020087010275  1.0000
  O   O7        1.0  0.5724252047350579  0.02395847820510167  0.8528772700251982  1.0000
  Ti  Ti1       1.0  0.6963671823781895  0.19489231065053794  0.6536723155256833  1.0000
  O   O8        1.0  0.6376491303858404  0.25147646651630173  0.40522865922283585  1.0000
  Si  Si2       1.0  0.014813776741572264  0.5723649157146212  0.023137252477891935  1.0000
  O   O9        1.0  0.7369206049108915  0.7180572293458137  0.07377400436736521  1.0000
