data_image0
_chemical_formula_structural       TiOSiCaTiO7
_chemical_formula_sum              "Ti2 O8 Si1 Ca1"
_cell_length_a       5.18340590049467
_cell_length_b       5.182227057512993
_cell_length_c       6.779159069061279
_cell_angle_alpha    91.11798145953941
_cell_angle_beta     91.13480427446396
_cell_angle_gamma    65.89888131426731

_space_group_name_H-M_alt    "P 1"
_space_group_IT_number       1

loop_
  _space_group_symop_operation_xyz
  'x, y, z'

loop_
  _atom_site_type_symbol
  _atom_site_label
  _atom_site_symmetry_multiplicity
  _atom_site_fract_x
  _atom_site_fract_y
  _atom_site_fract_z
  _atom_site_occupancy
  Ti  Ti1       1.0  0.7575466449060418  0.853060400378883  0.4010831352533368  1.0000
  O   O1        1.0  0.5189856003601837  0.6146001190863978  0.48361405881351394  1.0000
  Si  Si1       1.0  0.3683496034880569  0.46388577675733866  0.6265854470468472  1.0000
  Ca  Ca1       1.0  0.7456680406234434  0.8411169653678431  0.8954506007620053  1.0000
  Ti  Ti2       1.0  0.10403419354289656  0.19945060453347663  0.1774235823176757  1.0000
  O   O2        1.0  0.02561322757185591  0.6114398962767765  0.6129432467943678  1.0000
  O   O3        1.0  0.48154401556041987  0.5770177130688846  0.8258438611038125  1.0000
  O   O4        1.0  0.008524575812704336  0.10406269178616576  0.9447132616455424  1.0000
  O   O5        1.0  0.9646972609713527  0.060059659307822436  0.37592080219546803  1.0000
  O   O6        1.0  0.4895979121468829  0.044847194101377996  0.193899402602265  1.0000
  O   O7        1.0  0.5160608210465963  0.12108430005436986  0.6129230235630131  1.0000
  O   O8        1.0  0.9492870655275425  0.5850726045022344  0.19398268220239526  1.0000
