data_image0
_chemical_formula_structural       OSiOCaSi2O4
_chemical_formula_sum              "O6 Si3 Ca1"
_cell_length_a       5.175205416135109
_cell_length_b       5.267111735064388
_cell_length_c       7.413253784179688
_cell_angle_alpha    67.9956722261121
_cell_angle_beta     88.59361873823343
_cell_angle_gamma    60.32232431587921

_space_group_name_H-M_alt    "P 1"
_space_group_IT_number       1

loop_
  _space_group_symop_operation_xyz
  'x, y, z'

loop_
  _atom_site_type_symbol
  _atom_site_label
  _atom_site_symmetry_multiplicity
  _atom_site_fract_x
  _atom_site_fract_y
  _atom_site_fract_z
  _atom_site_occupancy
  O   O1        1.0  0.6549235048900741  0.09618704505660496  0.12455708493108411  1.0000
  Si  Si1       1.0  0.34911977510323833  0.5627880174658095  0.5092636246836693  1.0000
  O   O2        1.0  0.504412585309988  0.35503317750655755  0.744559084524405  1.0000
  Ca  Ca1       1.0  0.8983305601809315  0.3214879061365001  0.9084012056608086  1.0000
  Si  Si2       1.0  0.5568277113646651  0.9907342302931701  0.9446109583744818  1.0000
  Si  Si3       1.0  0.6364397387481926  0.0017792994358474257  0.3583650496853246  1.0000
  O   O3        1.0  0.49330792129046924  0.3304819688218451  0.39262492859421805  1.0000
  O   O4        1.0  0.8851489215244437  0.7204395591795527  0.9354114315148969  1.0000
  O   O5        1.0  0.4172636276659976  0.8542841928804483  0.42197817369974977  1.0000
  O   O6        1.0  0.9801077865278593  0.7217531799645212  0.49093153361452274  1.0000
