data_image0
_chemical_formula_structural       CaTiSiOCaO5
_chemical_formula_sum              "Ca2 Ti1 Si1 O6"
_cell_length_a       5.272770984084837
_cell_length_b       5.276492021665753
_cell_length_c       5.275790214538574
_cell_angle_alpha    60.28095498476269
_cell_angle_beta     60.281688203085054
_cell_angle_gamma    60.259667006774514

_space_group_name_H-M_alt    "P 1"
_space_group_IT_number       1

loop_
  _space_group_symop_operation_xyz
  'x, y, z'

loop_
  _atom_site_type_symbol
  _atom_site_label
  _atom_site_symmetry_multiplicity
  _atom_site_fract_x
  _atom_site_fract_y
  _atom_site_fract_z
  _atom_site_occupancy
  Ca  Ca1       1.0  0.38128806809054244  0.5414174107145983  0.33382658538123733  1.0000
  Ti  Ti1       1.0  0.13120800777274783  0.2909543687185162  0.08323186297317733  1.0000
  Si  Si1       1.0  0.6313030217844393  0.7909883764770367  0.5831948349629924  1.0000
  O   O1        1.0  0.3467540058947025  0.597536341054813  0.8197460422826774  1.0000
  Ca  Ca2       1.0  0.881270590809881  0.04058677156750492  0.8324496885183632  1.0000
  O   O2        1.0  0.871378862482909  0.5060324957355783  0.3901413517883588  1.0000
  O   O3        1.0  0.9159252828668912  0.9844635972364422  0.3465188926233157  1.0000
  O   O4        1.0  0.3912023887264444  0.07592077591198834  0.7763018792991081  1.0000
  O   O5        1.0  0.8230397261386494  0.5532420888244731  0.8694232430861685  1.0000
  O   O6        1.0  0.4395972190949824  0.028748292599515286  0.29701775261983515  1.0000
