data_image0
_chemical_formula_structural       O2CaO2Ti2SiO2
_chemical_formula_sum              "O6 Ca1 Ti2 Si1"
_cell_length_a       5.263341265301672
_cell_length_b       5.014641443818005
_cell_length_c       5.1118574142456055
_cell_angle_alpha    92.46389074992238
_cell_angle_beta     98.23897370045611
_cell_angle_gamma    110.00559139003371

_space_group_name_H-M_alt    "P 1"
_space_group_IT_number       1

loop_
  _space_group_symop_operation_xyz
  'x, y, z'

loop_
  _atom_site_type_symbol
  _atom_site_label
  _atom_site_symmetry_multiplicity
  _atom_site_fract_x
  _atom_site_fract_y
  _atom_site_fract_z
  _atom_site_occupancy
  O   O1        1.0  0.012067402891193124  0.28309198295469534  0.8665620311593962  1.0000
  O   O2        1.0  0.5639664382423305  0.932075230752586  0.49703598992631653  1.0000
  Ca  Ca1       1.0  0.7855535816752993  0.9000153981164372  0.1683471625541307  1.0000
  O   O3        1.0  0.5405044007237909  0.5026672165088236  0.8943628198912631  1.0000
  O   O4        1.0  0.3214468189842922  0.9445130085154363  0.9438257968519773  1.0000
  Ti  Ti1       1.0  0.6785282513157798  0.318394829344169  0.6055270720491638  1.0000
  Ti  Ti2       1.0  0.2718241606611153  0.6393885670459841  0.619192841733994  1.0000
  Si  Si1       1.0  0.29759874644238554  0.2534368185064112  0.017626160074842214  1.0000
  O   O5        1.0  0.9188260906011323  0.5916595062468877  0.4247640541380951  1.0000
  O   O6        1.0  0.3169418023676353  0.32216387249564654  0.34052832617289225  1.0000
