data_image0
_chemical_formula_structural       TiCa2SiO2
_chemical_formula_sum              "Ti1 Ca2 Si1 O2"
_cell_length_a       3.3608327051053464
_cell_length_b       3.3615937588679916
_cell_length_c       8.36406421661377
_cell_angle_alpha    89.96170563680522
_cell_angle_beta     89.93873570688619
_cell_angle_gamma    89.88293305818611

_space_group_name_H-M_alt    "P 1"
_space_group_IT_number       1

loop_
  _space_group_symop_operation_xyz
  'x, y, z'

loop_
  _atom_site_type_symbol
  _atom_site_label
  _atom_site_symmetry_multiplicity
  _atom_site_fract_x
  _atom_site_fract_y
  _atom_site_fract_z
  _atom_site_occupancy
  Ti  Ti1       1.0  0.057329137570956236  0.15088816220126375  0.46938480815362205  1.0000
  Ca  Ca1       1.0  0.55673355886101  0.6504396828883021  0.7380277354718539  1.0000
  Ca  Ca2       1.0  0.056244003567043475  0.15035142043506047  0.0665355252158584  1.0000
  Si  Si1       1.0  0.5575707904052675  0.651033608518765  0.35785497075698297  1.0000
  O   O1        1.0  0.5564260231635181  0.6504161816733127  0.9986944848762941  1.0000
  O   O2        1.0  0.05689766248892601  0.15067059783111864  0.6971899175178713  1.0000
