data_image0
_chemical_formula_structural       SiOSiCa
_chemical_formula_sum              "Si2 O1 Ca1"
_cell_length_a       3.7151823568950864
_cell_length_b       3.7173946948584984
_cell_length_c       6.422978401184081
_cell_angle_alpha    73.06193109099013
_cell_angle_beta     73.12524682079989
_cell_angle_gamma    60.09077028654934

_space_group_name_H-M_alt    "P 1"
_space_group_IT_number       1

loop_
  _space_group_symop_operation_xyz
  'x, y, z'

loop_
  _atom_site_type_symbol
  _atom_site_label
  _atom_site_symmetry_multiplicity
  _atom_site_fract_x
  _atom_site_fract_y
  _atom_site_fract_z
  _atom_site_occupancy
  Si  Si1       1.0  0.011020136386281371  0.18987879412202305  0.994299800496645  1.0000
  O   O1        1.0  0.19576465267070428  0.3737655253558763  0.44136473171921065  1.0000
  Si  Si2       1.0  0.2885475630837074  0.46719427107388767  0.1619212086763057  1.0000
  Ca  Ca1       1.0  0.47620118421263924  0.6543012306330802  0.6003654480933192  1.0000
