data_image0
_chemical_formula_structural       CaSiO
_chemical_formula_sum              "Ca1 Si1 O1"
_cell_length_a       3.5383075715834678
_cell_length_b       3.5431778312265494
_cell_length_c       5.41862154006958
_cell_angle_alpha    70.9977677115306
_cell_angle_beta     70.94721690508086
_cell_angle_gamma    59.934510035038116

_space_group_name_H-M_alt    "P 1"
_space_group_IT_number       1

loop_
  _space_group_symop_operation_xyz
  'x, y, z'

loop_
  _atom_site_type_symbol
  _atom_site_label
  _atom_site_symmetry_multiplicity
  _atom_site_fract_x
  _atom_site_fract_y
  _atom_site_fract_z
  _atom_site_occupancy
  Ca  Ca1       1.0  0.3446986282141061  0.5662788927564798  0.3901264667837887  1.0000
  Si  Si1       1.0  0.8539984924667569  0.07642953666930295  0.8600768047400595  1.0000
  O   O1        1.0  0.7418082943830623  0.9637702023615995  0.1972290965339321  1.0000
