data_image0
_chemical_formula_structural       O3CaSiTiOSiO4
_chemical_formula_sum              "O8 Ca1 Si2 Ti1"
_cell_length_a       5.077522521113365
_cell_length_b       5.075717301866732
_cell_length_c       6.803699493408204
_cell_angle_alpha    91.12248940581135
_cell_angle_beta     91.09470414936422
_cell_angle_gamma    64.59482474297953

_space_group_name_H-M_alt    "P 1"
_space_group_IT_number       1

loop_
  _space_group_symop_operation_xyz
  'x, y, z'

loop_
  _atom_site_type_symbol
  _atom_site_label
  _atom_site_symmetry_multiplicity
  _atom_site_fract_x
  _atom_site_fract_y
  _atom_site_fract_z
  _atom_site_occupancy
  O   O1        1.0  0.847477260133342  0.9046028613878792  0.8231984746798401  1.0000
  O   O2        1.0  0.33263274055816844  0.39087790305389736  0.30004906864988684  1.0000
  O   O3        1.0  0.8289458124159689  0.38444198429487925  0.1650738500502273  1.0000
  Ca  Ca1       1.0  0.11835069349261162  0.1754321413260793  0.8735279059148845  1.0000
  Si  Si1       1.0  0.47453099571650004  0.5320432610374884  0.1448417988251404  1.0000
  Ti  Ti1       1.0  0.11826903880882213  0.17537468654349442  0.37347587602739646  1.0000
  O   O4        1.0  0.9090795903968394  0.4641863286538896  0.5822481582991211  1.0000
  Si  Si2       1.0  0.7618243377860421  0.8187923798041633  0.6021024387107899  1.0000
  O   O5        1.0  0.40739897305889283  0.966142922130684  0.5819043625081368  1.0000
  O   O6        1.0  0.9035109998209212  0.9601004396246313  0.44684474415141634  1.0000
  O   O7        1.0  0.32750512010160865  0.8866517857999465  0.1648217472581655  1.0000
  O   O8        1.0  0.3891476683440048  0.44649231010407914  0.9235950579555673  1.0000
