data_image0
_chemical_formula_structural       CaSiO
_chemical_formula_sum              "Ca1 Si1 O1"
_cell_length_a       3.533740122753183
_cell_length_b       3.5421531152182455
_cell_length_c       5.389139175415039
_cell_angle_alpha    70.92859770385168
_cell_angle_beta     70.95423810534155
_cell_angle_gamma    60.07146264287751

_space_group_name_H-M_alt    "P 1"
_space_group_IT_number       1

loop_
  _space_group_symop_operation_xyz
  'x, y, z'

loop_
  _atom_site_type_symbol
  _atom_site_label
  _atom_site_symmetry_multiplicity
  _atom_site_fract_x
  _atom_site_fract_y
  _atom_site_fract_z
  _atom_site_occupancy
  Ca  Ca1       1.0  0.2959933624771785  0.6960022282102241  0.800343330964934  1.0000
  Si  Si1       1.0  0.7839937383129789  0.18581096170833805  0.3308134428213638  1.0000
  O   O1        1.0  0.8993580414309668  0.2979644023722165  0.9921085517106847  1.0000
