data_image0
_chemical_formula_structural       SiTiO2CaSiO6
_chemical_formula_sum              "Si2 Ti1 O8 Ca1"
_cell_length_a       5.108922582377026
_cell_length_b       5.1081527209639175
_cell_length_c       6.835721015930176
_cell_angle_alpha    90.58673628240511
_cell_angle_beta     90.44847269400023
_cell_angle_gamma    64.27834243007229

_space_group_name_H-M_alt    "P 1"
_space_group_IT_number       1

loop_
  _space_group_symop_operation_xyz
  'x, y, z'

loop_
  _atom_site_type_symbol
  _atom_site_label
  _atom_site_symmetry_multiplicity
  _atom_site_fract_x
  _atom_site_fract_y
  _atom_site_fract_z
  _atom_site_occupancy
  Si  Si1       1.0  0.3484259791509491  0.07713688669567281  0.5257907826240725  1.0000
  Ti  Ti1       1.0  0.7056105278353343  0.4331095179387674  0.2976562880361458  1.0000
  O   O1        1.0  0.4920559523352805  0.2204108020665724  0.37326139866634056  1.0000
  O   O2        1.0  0.9776973098333437  0.7009822795754908  0.8514319298593679  1.0000
  Ca  Ca1       1.0  0.7056924650864866  0.43316581877342997  0.7976581758392882  1.0000
  Si  Si2       1.0  0.06291971905903292  0.7892045182747071  0.06945912476180355  1.0000
  O   O3        1.0  0.914334526217129  0.14274833279490756  0.08959113135425105  1.0000
  O   O4        1.0  0.43373479410678967  0.16532145319919464  0.7438007950610461  1.0000
  O   O5        1.0  0.9951640232540028  0.22416881097802335  0.5050374554854933  1.0000
  O   O6        1.0  0.41616045810183366  0.6421091591781886  0.09021499633534226  1.0000
  O   O7        1.0  0.49705090974323674  0.7235755458899613  0.5056635903484986  1.0000
  O   O8        1.0  0.9191553390108473  0.6459467466570838  0.22187583514086187  1.0000
