data_image0
_chemical_formula_structural       SiOCaTiO2CaO2CaSiTiO5
_chemical_formula_sum              "Si2 O10 Ca3 Ti2"
_cell_length_a       5.44475780536385
_cell_length_b       5.676036663207103
_cell_length_c       8.112883567810059
_cell_angle_alpha    77.67601915411916
_cell_angle_beta     86.87470604120203
_cell_angle_gamma    94.25762853938788

_space_group_name_H-M_alt    "P 1"
_space_group_IT_number       1

loop_
  _space_group_symop_operation_xyz
  'x, y, z'

loop_
  _atom_site_type_symbol
  _atom_site_label
  _atom_site_symmetry_multiplicity
  _atom_site_fract_x
  _atom_site_fract_y
  _atom_site_fract_z
  _atom_site_occupancy
  Si  Si1       1.0  0.5741067853064109  0.6623893953202546  0.7739686556167629  1.0000
  O   O1        1.0  0.4780509764165873  0.8783054764814657  0.865295172419334  1.0000
  Ca  Ca1       1.0  0.37697549492405297  0.16764762041369763  0.6393526489596824  1.0000
  Ti  Ti1       1.0  0.05112938958561425  0.9277804227180599  0.3163784122331127  1.0000
  O   O2        1.0  0.03345949020843551  0.10021264039678703  0.5073142904156936  1.0000
  O   O3        1.0  0.8339550490598482  0.5644131148588372  0.8341790653416356  1.0000
  Ca  Ca2       1.0  0.117229244167403  0.6275579089478862  0.002066878985091708  1.0000
  O   O4        1.0  0.37723742547596817  0.4181803123326899  0.8376508517842425  1.0000
  O   O5        1.0  0.14732259124848437  0.5748234528136925  0.4065609132249516  1.0000
  Ca  Ca3       1.0  0.658557795247045  0.16086476729847987  0.007266097844339932  1.0000
  Si  Si2       1.0  0.9436197006597901  0.3514521908040243  0.39072708416041396  1.0000
  Ti  Ti2       1.0  0.5422684831186546  0.7231445740237891  0.3512649299555906  1.0000
  O   O6        1.0  0.8286764696116381  0.8059964920794936  0.17480359661561515  1.0000
  O   O7        1.0  0.9588323132780167  0.2835055984995532  0.2018885746082468  1.0000
  O   O8        1.0  0.3713155751555633  0.9762935673465419  0.21247318435753618  1.0000
  O   O9        1.0  0.6608939176067227  0.3950849589461594  0.4454295010466851  1.0000
  O   O10       1.0  0.5478767463493227  0.7938139644977081  0.5714055927797893  1.0000
