data_image0
_chemical_formula_structural       CaOTiOCaSiO4
_chemical_formula_sum              "Ca2 O6 Ti1 Si1"
_cell_length_a       5.295391060415719
_cell_length_b       5.295753889639582
_cell_length_c       5.29581356048584
_cell_angle_alpha    59.99531720177541
_cell_angle_beta     59.99752448825222
_cell_angle_gamma    59.98106371770242

_space_group_name_H-M_alt    "P 1"
_space_group_IT_number       1

loop_
  _space_group_symop_operation_xyz
  'x, y, z'

loop_
  _atom_site_type_symbol
  _atom_site_label
  _atom_site_symmetry_multiplicity
  _atom_site_fract_x
  _atom_site_fract_y
  _atom_site_fract_z
  _atom_site_occupancy
  Ca  Ca1       1.0  0.3322618988244596  0.6096731077479943  0.2285642886748768  1.0000
  O   O1        1.0  0.8207895931955899  0.6205857521898647  0.7181092892423857  1.0000
  Ti  Ti1       1.0  0.08184917696054023  0.359647693733339  0.9785873513730109  1.0000
  O   O2        1.0  0.8211014433648713  0.6205997181054095  0.23945741974613655  1.0000
  Ca  Ca2       1.0  0.8316957976849715  0.10970178292340185  0.7283196015354565  1.0000
  Si  Si1       1.0  0.5818193084858416  0.8596830805313563  0.47864074535361206  1.0000
  O   O3        1.0  0.34220341714377706  0.09875399554415501  0.7180320079947277  1.0000
  O   O4        1.0  0.3428552078961977  0.6202070974662085  0.71773875522171  1.0000
  O   O5        1.0  0.34263360958604955  0.09866728125740928  0.23944477512646492  1.0000
  O   O6        1.0  0.8205500064205877  0.0990972049140872  0.23994759039275138  1.0000
