data_image0
_chemical_formula_structural       OTiCaO6Si2O
_chemical_formula_sum              "O8 Ti1 Ca1 Si2"
_cell_length_a       5.647914486613374
_cell_length_b       5.644870061279816
_cell_length_c       5.648664474487305
_cell_angle_alpha    106.57281982788915
_cell_angle_beta     106.5573357640827
_cell_angle_gamma    115.34700396687535

_space_group_name_H-M_alt    "P 1"
_space_group_IT_number       1

loop_
  _space_group_symop_operation_xyz
  'x, y, z'

loop_
  _atom_site_type_symbol
  _atom_site_label
  _atom_site_symmetry_multiplicity
  _atom_site_fract_x
  _atom_site_fract_y
  _atom_site_fract_z
  _atom_site_occupancy
  O   O1        1.0  0.3433749129868353  0.26873158974346295  0.3507832532368368  1.0000
  Ti  Ti1       1.0  0.4444836310543158  0.13110225238406825  0.0339511921904892  1.0000
  Ca  Ca1       1.0  0.7114670008819443  0.8139436730195687  0.5940500476775452  1.0000
  O   O2        1.0  0.1986898181657979  0.16087750733543404  0.7343840769375548  1.0000
  O   O3        1.0  0.3135813281188904  0.6579065057695176  0.7122574024953233  1.0000
  O   O4        1.0  0.7184977916260287  0.5662029208572849  0.20712557676276455  1.0000
  O   O5        1.0  0.25290190721172623  0.6621224949683658  0.31423999995439517  1.0000
  O   O6        1.0  0.724578836981359  0.2068041246735771  0.8649353718818533  1.0000
  O   O7        1.0  0.7845934002787155  0.1306696672092723  0.3212805198878264  1.0000
  Si  Si1       1.0  0.9382481886535334  0.5631630985734213  0.07228164211358987  1.0000
  Si  Si2       1.0  0.1433372292347686  0.2937363623816244  0.5099416166411235  1.0000
  O   O8        1.0  0.030521675341796062  0.7750024362483902  0.9290059317023365  1.0000
