data_image0
_chemical_formula_structural       Ca2OTiSiOSiO4CaO2
_chemical_formula_sum              "Ca3 O8 Ti1 Si2"
_cell_length_a       6.306518858234463
_cell_length_b       5.777359292046783
_cell_length_c       5.813124656677246
_cell_angle_alpha    98.12008648419489
_cell_angle_beta     85.32934863271288
_cell_angle_gamma    88.85235317452155

_space_group_name_H-M_alt    "P 1"
_space_group_IT_number       1

loop_
  _space_group_symop_operation_xyz
  'x, y, z'

loop_
  _atom_site_type_symbol
  _atom_site_label
  _atom_site_symmetry_multiplicity
  _atom_site_fract_x
  _atom_site_fract_y
  _atom_site_fract_z
  _atom_site_occupancy
  Ca  Ca1       1.0  0.3000921692633074  0.539474865715513  0.16024004843817688  1.0000
  Ca  Ca2       1.0  0.5203543265569254  0.06644109992841156  0.5912893172537629  1.0000
  O   O1        1.0  0.6613170366693888  0.46088987565458683  0.10408511275323387  1.0000
  Ti  Ti1       1.0  0.7539881419151991  0.7510836407448428  0.9522305033185932  1.0000
  Si  Si1       1.0  0.2607553877962547  0.6518822515074602  0.6866611724706944  1.0000
  O   O2        1.0  0.06108251502076505  0.26557484085780364  0.1362646231502034  1.0000
  Si  Si2       1.0  0.8166776145545687  0.22715153912113392  0.07202746792153665  1.0000
  O   O3        1.0  0.4591539734005566  0.7530477036344899  0.8347630694369298  1.0000
  O   O4        1.0  0.8037866031401618  0.0791823777155757  0.8071780273684229  1.0000
  O   O5        1.0  0.3077822094632246  0.38352551504068993  0.5507535929111146  1.0000
  O   O6        1.0  0.727830224236112  0.03778825388125371  0.24922521738486922  1.0000
  Ca  Ca3       1.0  0.02609283419920388  0.1380747844880125  0.4870875750387384  1.0000
  O   O7        1.0  0.05732147176580198  0.6580213182537079  0.8793407327079901  1.0000
  O   O8        1.0  0.24181712292448657  0.8241766529360244  0.4839732240253034  1.0000
