data_image0
_chemical_formula_structural       OCa2TiO7Si
_chemical_formula_sum              "O8 Ca2 Ti1 Si1"
_cell_length_a       6.118443571689563
_cell_length_b       6.119577339103519
_cell_length_c       6.11707878112793
_cell_angle_alpha    106.9589661395967
_cell_angle_beta     107.11711868556458
_cell_angle_gamma    114.59848647842396

_space_group_name_H-M_alt    "P 1"
_space_group_IT_number       1

loop_
  _space_group_symop_operation_xyz
  'x, y, z'

loop_
  _atom_site_type_symbol
  _atom_site_label
  _atom_site_symmetry_multiplicity
  _atom_site_fract_x
  _atom_site_fract_y
  _atom_site_fract_z
  _atom_site_occupancy
  O   O1        1.0  0.17723534134485336  0.27949549700698545  0.4240355750020465  1.0000
  Ca  Ca1       1.0  0.8532662425651366  0.14559197078013222  0.614039224098835  1.0000
  Ca  Ca2       1.0  0.10380115245956467  0.8960816010965383  0.11403537339862886  1.0000
  Ti  Ti1       1.0  0.3528477514470389  0.6459724565648425  0.6137890910975333  1.0000
  O   O2        1.0  0.7590226603280563  0.37398188538479377  0.9381121678397688  1.0000
  O   O3        1.0  0.33959748002444967  0.8225326281749804  0.42402604088315754  1.0000
  O   O4        1.0  0.17620029369613205  0.6598141997253968  0.8031945699976016  1.0000
  O   O5        1.0  0.7194790675352648  0.8217293030597796  0.804289748737233  1.0000
  O   O6        1.0  0.6259687172679512  0.24096985956186912  0.2901272166253841  1.0000
  O   O7        1.0  0.2725185705093922  0.24202602336516865  0.9374412146279806  1.0000
  O   O8        1.0  0.7585189831507583  0.7273782329318168  0.29077700048926314  1.0000
  Si  Si1       1.0  0.6041886422916755  0.3961332613247256  0.11408068092314881  1.0000
