data_image0
_chemical_formula_structural       CaOTiO2SiO3Si
_chemical_formula_sum              "Ca1 O6 Ti1 Si2"
_cell_length_a       5.3827363274012425
_cell_length_b       5.828158291590877
_cell_length_c       6.456794261932372
_cell_angle_alpha    111.97894258671658
_cell_angle_beta     90.40945867921248
_cell_angle_gamma    117.38730343868706

_space_group_name_H-M_alt    "P 1"
_space_group_IT_number       1

loop_
  _space_group_symop_operation_xyz
  'x, y, z'

loop_
  _atom_site_type_symbol
  _atom_site_label
  _atom_site_symmetry_multiplicity
  _atom_site_fract_x
  _atom_site_fract_y
  _atom_site_fract_z
  _atom_site_occupancy
  Ca  Ca1       1.0  0.6823868854745248  0.7057134497518356  0.719137806522937  1.0000
  O   O1        1.0  0.6240744718507308  0.07546279540622453  0.9738309026679794  1.0000
  Ti  Ti1       1.0  0.965513087128623  0.2679958680512612  0.21297337077708853  1.0000
  O   O2        1.0  0.37241114837849365  0.5641751390505346  0.3618905739413915  1.0000
  O   O3        1.0  0.8409802663923356  0.013705416354338628  0.34526800449638134  1.0000
  Si  Si1       1.0  0.6632200343211606  0.6620538000645277  0.2574317864172483  1.0000
  O   O4        1.0  0.5858510143030687  0.5093181428635298  0.9760053720236156  1.0000
  O   O5        1.0  0.11230382409867101  0.07760814933191314  0.9731841936440596  1.0000
  O   O6        1.0  0.853894667077449  0.5612838522877616  0.36328971042207864  1.0000
  Si  Si2       1.0  0.3942227996892093  0.12958162542218873  0.8409683596351514  1.0000
