data_image0
_chemical_formula_structural       OTi2CaO2SiO3
_chemical_formula_sum              "O6 Ti2 Ca1 Si1"
_cell_length_a       5.537746133416963
_cell_length_b       5.811041542847219
_cell_length_c       5.8237223625183105
_cell_angle_alpha    116.87398982083516
_cell_angle_beta     89.98535857834487
_cell_angle_gamma    89.95581117625575

_space_group_name_H-M_alt    "P 1"
_space_group_IT_number       1

loop_
  _space_group_symop_operation_xyz
  'x, y, z'

loop_
  _atom_site_type_symbol
  _atom_site_label
  _atom_site_symmetry_multiplicity
  _atom_site_fract_x
  _atom_site_fract_y
  _atom_site_fract_z
  _atom_site_occupancy
  O   O1        1.0  0.4804918281602448  0.8161064923289557  0.25380353657943405  1.0000
  Ti  Ti1       1.0  0.35872758438004654  0.9626121471397248  0.5982459598404405  1.0000
  Ti  Ti2       1.0  0.6869754212141918  0.9630269326857905  0.0985040090481605  1.0000
  Ca  Ca1       1.0  0.21406665475470396  0.46348607802498565  0.0976986405637755  1.0000
  O   O2        1.0  0.18119012961139302  0.27231609685630853  0.6645202766497329  1.0000
  O   O3        1.0  0.8614331248058456  0.28336222259153737  0.32575935282125246  1.0000
  Si  Si1       1.0  0.0028327501332967575  0.4629369434471523  0.598183276884827  1.0000
  O   O4        1.0  0.48004878999237427  0.10923179806200728  0.9426429694756445  1.0000
  O   O5        1.0  0.17966128898141087  0.6536143107445089  0.5306379011536577  1.0000
  O   O6        1.0  0.8630677153566166  0.6425409457503091  0.8721208051429162  1.0000
