data_image0
_chemical_formula_structural       TiO
_chemical_formula_sum              "Ti1 O1"
_cell_length_a       2.969983385242468
_cell_length_b       3.0524305718417986
_cell_length_c       2.8960976600646973
_cell_angle_alpha    116.31887132755142
_cell_angle_beta     117.71179294818978
_cell_angle_gamma    89.28898597501176

_space_group_name_H-M_alt    "P 1"
_space_group_IT_number       1

loop_
  _space_group_symop_operation_xyz
  'x, y, z'

loop_
  _atom_site_type_symbol
  _atom_site_label
  _atom_site_symmetry_multiplicity
  _atom_site_fract_x
  _atom_site_fract_y
  _atom_site_fract_z
  _atom_site_occupancy
  Ti  Ti1       1.0  0.696339931145661  0.7891442039811677  0.7053212739807209  1.0000
  O   O1        1.0  0.1954963057997435  0.2885931207871198  0.7030808584584577  1.0000
