data_image0
_chemical_formula_structural       O5CaTi2SiTiOSiO4
_chemical_formula_sum              "O10 Ca1 Ti3 Si2"
_cell_length_a       5.302377637690464
_cell_length_b       5.682242599331184
_cell_length_c       7.788689136505126
_cell_angle_alpha    74.12278341133447
_cell_angle_beta     84.97344780431561
_cell_angle_gamma    84.80343078562001

_space_group_name_H-M_alt    "P 1"
_space_group_IT_number       1

loop_
  _space_group_symop_operation_xyz
  'x, y, z'

loop_
  _atom_site_type_symbol
  _atom_site_label
  _atom_site_symmetry_multiplicity
  _atom_site_fract_x
  _atom_site_fract_y
  _atom_site_fract_z
  _atom_site_occupancy
  O   O1        1.0  0.7886117339316129  0.3796515138934885  0.02890247214568924  1.0000
  O   O2        1.0  0.18040146222392348  0.5010876008171935  0.7536242351767034  1.0000
  O   O3        1.0  0.20813115922683795  0.08655674242503884  0.6383656410417466  1.0000
  O   O4        1.0  0.9089372444304248  0.6315354553680762  0.2884520104220477  1.0000
  O   O5        1.0  0.3803271691809837  0.7101005706761134  0.3144218613007866  1.0000
  Ca  Ca1       1.0  0.03564743918096008  0.8068258924058911  0.5247259811719891  1.0000
  Ti  Ti1       1.0  0.5069114194735059  0.48705077388823775  0.8575924754666898  1.0000
  Ti  Ti2       1.0  0.9934627858156292  0.23109370426276776  0.8470453774699154  1.0000
  Si  Si1       1.0  0.1754336313167742  0.7050461560298275  0.16909132295486384  1.0000
  Ti  Ti3       1.0  0.6405927706538647  0.4579427209511472  0.238246455661377  1.0000
  O   O6        1.0  0.3237879068773125  0.48282630244519925  0.09240426880589099  1.0000
  Si  Si2       1.0  0.515804556534384  0.0674028752563097  0.6281634025665308  1.0000
  O   O7        1.0  0.650002702535677  0.16765085911288555  0.4226961769970883  1.0000
  O   O8        1.0  0.6334207105858779  0.7781692708160033  0.6924210700305578  1.0000
  O   O9        1.0  0.13064807582378296  0.9560146455053806  0.013374826513053398  1.0000
  O   O10       1.0  0.6497816428486397  0.2128253180452109  0.7517944180080663  1.0000
