data_image0
_chemical_formula_structural       TiOSiOSiO2TiO4CaO
_chemical_formula_sum              "Ti2 O9 Si2 Ca1"
_cell_length_a       5.119385760561732
_cell_length_b       7.0734276717453355
_cell_length_c       6.681029796600341
_cell_angle_alpha    75.29687851401897
_cell_angle_beta     76.12095505849442
_cell_angle_gamma    87.31754135957367

_space_group_name_H-M_alt    "P 1"
_space_group_IT_number       1

loop_
  _space_group_symop_operation_xyz
  'x, y, z'

loop_
  _atom_site_type_symbol
  _atom_site_label
  _atom_site_symmetry_multiplicity
  _atom_site_fract_x
  _atom_site_fract_y
  _atom_site_fract_z
  _atom_site_occupancy
  Ti  Ti1       1.0  0.936744032934621  0.09083905187872794  0.6272558241736399  1.0000
  O   O1        1.0  0.277520819075855  0.15744588963806275  0.6207631847827872  1.0000
  Si  Si1       1.0  0.39349123229963606  0.331647562684101  0.707259349819958  1.0000
  O   O2        1.0  0.7812525793110349  0.6261542225177429  0.20210037685295873  1.0000
  Si  Si2       1.0  0.11279243906979158  0.06325253381042191  0.11140233185411884  1.0000
  O   O3        1.0  0.29503057596706406  0.25567535899674027  0.9712012699504515  1.0000
  O   O4        1.0  0.9724149808277766  0.082328005704427  0.351512741150102  1.0000
  Ti  Ti2       1.0  0.6569043323113938  0.8100939389660847  0.03561434159342511  1.0000
  O   O5        1.0  0.8710669852127093  0.03663929688267357  0.9954133958467417  1.0000
  O   O6        1.0  0.3031010865236338  0.5455320686533367  0.6106735190230413  1.0000
  O   O7        1.0  0.7880119046724515  0.8347718694707272  0.7396176404582259  1.0000
  O   O8        1.0  0.291422216298768  0.8628828629965425  0.14314398699042408  1.0000
  Ca  Ca1       1.0  0.9349493218227087  0.637576807511919  0.49508879612267737  1.0000
  O   O9        1.0  0.7279124501897682  0.3122097386939554  0.6462961302488477  1.0000
