data_image0
_chemical_formula_structural       TiOCaTiO2SiO3SiO2SiO2
_chemical_formula_sum              "Ti2 O10 Ca1 Si3"
_cell_length_a       5.006120862207702
_cell_length_b       6.597310630889745
_cell_length_c       8.135699272155762
_cell_angle_alpha    85.19263578265988
_cell_angle_beta     109.88947174412279
_cell_angle_gamma    95.56149743069572

_space_group_name_H-M_alt    "P 1"
_space_group_IT_number       1

loop_
  _space_group_symop_operation_xyz
  'x, y, z'

loop_
  _atom_site_type_symbol
  _atom_site_label
  _atom_site_symmetry_multiplicity
  _atom_site_fract_x
  _atom_site_fract_y
  _atom_site_fract_z
  _atom_site_occupancy
  Ti  Ti1       1.0  0.37840374749691885  0.17076937335530704  0.8957378314410545  1.0000
  O   O1        1.0  0.6642063003581934  0.7084488082180737  0.7767865445046355  1.0000
  Ca  Ca1       1.0  0.18239976898526578  0.6616765842018396  0.6987995738106035  1.0000
  Ti  Ti2       1.0  0.02274166755024094  0.18166256463438837  0.45857238963883384  1.0000
  O   O2        1.0  0.20013876331729413  0.30123850937722124  0.6816496145421769  1.0000
  O   O3        1.0  0.6539691419058111  0.22894793233611538  0.41328608841990555  1.0000
  Si  Si1       1.0  0.7552266863568692  0.8410009920597056  0.26832226790516445  1.0000
  O   O4        1.0  0.14646742853203853  0.35266489903186776  0.30505850665013967  1.0000
  O   O5        1.0  0.7144729400785971  0.09607593881679495  0.8909443987274127  1.0000
  O   O6        1.0  0.40494475226049753  0.34489441721178465  0.06712621311940394  1.0000
  Si  Si2       1.0  0.8483108873571387  0.867711969314818  0.9184281181176736  1.0000
  O   O7        1.0  0.04085669619012197  0.8939711296165571  0.46014628371190697  1.0000
  O   O8        1.0  0.9083467878298175  0.7892927544892253  0.12394877280161866  1.0000
  Si  Si3       1.0  0.4529592185888586  0.39282516052095623  0.2718347175434389  1.0000
  O   O9        1.0  0.6247712945709942  0.6126442892758563  0.3269488376245146  1.0000
  O   O10       1.0  0.16548000936956894  0.9187243391103438  0.8901720181202576  1.0000
