data_image0
_chemical_formula_structural       OCaSiTiO3SiO3
_chemical_formula_sum              "O7 Ca1 Si2 Ti1"
_cell_length_a       4.649939628819876
_cell_length_b       5.427706055813827
_cell_length_c       5.425726413726807
_cell_angle_alpha    102.64208229255011
_cell_angle_beta     96.949098264623
_cell_angle_gamma    97.0559974435048

_space_group_name_H-M_alt    "P 1"
_space_group_IT_number       1

loop_
  _space_group_symop_operation_xyz
  'x, y, z'

loop_
  _atom_site_type_symbol
  _atom_site_label
  _atom_site_symmetry_multiplicity
  _atom_site_fract_x
  _atom_site_fract_y
  _atom_site_fract_z
  _atom_site_occupancy
  O   O1        1.0  0.8467080321984509  0.5234574195922349  0.26267438906748536  1.0000
  Ca  Ca1       1.0  0.050852122191055844  0.6555600863150304  0.6823422823257742  1.0000
  Si  Si1       1.0  0.4683495077401895  0.14872593145952331  0.615291804043195  1.0000
  Ti  Ti1       1.0  0.04886361834148509  0.2615583127644756  0.0773728830134193  1.0000
  O   O2        1.0  0.25136056446818394  0.07646341082362046  0.8160091861898818  1.0000
  O   O3        1.0  0.2871503392855825  0.2723045562892022  0.4024625819830828  1.0000
  O   O4        1.0  0.7739839275212687  0.320934555687871  0.7690917013211468  1.0000
  Si  Si2       1.0  0.6297384326117594  0.7237321268140207  0.19074899244243915  1.0000
  O   O5        1.0  0.5482226530654912  0.8651472124591821  0.4738425450415979  1.0000
  O   O6        1.0  0.8108529337435537  0.937324339760359  0.06756715411455949  1.0000
  O   O7        1.0  0.3246420181504688  0.569668171125749  0.018082351565715686  1.0000
