data_image0
_chemical_formula_structural       TiCaSiOSiO5
_chemical_formula_sum              "Ti1 Ca1 Si2 O6"
_cell_length_a       5.161758850212886
_cell_length_b       5.168878093969497
_cell_length_c       6.1220808029174805
_cell_angle_alpha    65.2541778944012
_cell_angle_beta     65.27943042681085
_cell_angle_gamma    60.18179379714457

_space_group_name_H-M_alt    "P 1"
_space_group_IT_number       1

loop_
  _space_group_symop_operation_xyz
  'x, y, z'

loop_
  _atom_site_type_symbol
  _atom_site_label
  _atom_site_symmetry_multiplicity
  _atom_site_fract_x
  _atom_site_fract_y
  _atom_site_fract_z
  _atom_site_occupancy
  Ti  Ti1       1.0  0.42188659516400545  0.8765395264940624  0.37759748605514293  1.0000
  Ca  Ca1       1.0  0.9218845104102623  0.37655171137916155  0.8775582101112699  1.0000
  Si  Si1       1.0  0.14389636199247252  0.5977051226242569  0.21283661937604967  1.0000
  O   O1        1.0  0.4603458783899071  0.30173542081169946  0.1521908696337204  1.0000
  Si  Si2       1.0  0.6999219755639153  0.15543238822525662  0.5422066167955073  1.0000
  O   O2        1.0  0.9971328281248668  0.11549559918447118  0.6025998110400265  1.0000
  O   O3        1.0  0.3834289752300161  0.45135144141927835  0.6029438043253106  1.0000
  O   O4        1.0  0.8466425812303698  0.6376059967438512  0.15254585265132822  1.0000
  O   O5        1.0  0.6600588919209964  0.838114816116972  0.6036868699216179  1.0000
  O   O6        1.0  0.18375842852821042  0.9149829107682896  0.15143838068468135  1.0000
