data_image0
_chemical_formula_structural       SiOSiCa
_chemical_formula_sum              "Si2 O1 Ca1"
_cell_length_a       3.813020058693049
_cell_length_b       3.8152559470262344
_cell_length_c       6.126712322235107
_cell_angle_alpha    71.97758351696211
_cell_angle_beta     71.96160917728803
_cell_angle_gamma    60.04209073632089

_space_group_name_H-M_alt    "P 1"
_space_group_IT_number       1

loop_
  _space_group_symop_operation_xyz
  'x, y, z'

loop_
  _atom_site_type_symbol
  _atom_site_label
  _atom_site_symmetry_multiplicity
  _atom_site_fract_x
  _atom_site_fract_y
  _atom_site_fract_z
  _atom_site_occupancy
  Si  Si1       1.0  0.0923727450079597  0.13439961423462027  0.8544473954881782  1.0000
  O   O1        1.0  0.19074112403145219  0.23290154900552365  0.5590719847460098  1.0000
  Si  Si2       1.0  0.7035738777420532  0.7454731606065841  0.02116990791507132  1.0000
  Ca  Ca1       1.0  0.9023919662008063  0.9442011310689492  0.4239609051039718  1.0000
