data_image0
_chemical_formula_structural       SiCaO2
_chemical_formula_sum              "Si1 Ca1 O2"
_cell_length_a       3.510656098244172
_cell_length_b       3.5127921626184633
_cell_length_c       6.064859867095946
_cell_angle_alpha    73.22577468288134
_cell_angle_beta     73.22388828595706
_cell_angle_gamma    60.30061170410365

_space_group_name_H-M_alt    "P 1"
_space_group_IT_number       1

loop_
  _space_group_symop_operation_xyz
  'x, y, z'

loop_
  _atom_site_type_symbol
  _atom_site_label
  _atom_site_symmetry_multiplicity
  _atom_site_fract_x
  _atom_site_fract_y
  _atom_site_fract_z
  _atom_site_occupancy
  Si  Si1       1.0  0.9993546989680946  0.05785728503110212  0.6978092964992376  1.0000
  Ca  Ca1       1.0  0.49920940698330124  0.5584234721391315  0.19761787108605264  1.0000
  O   O1        1.0  0.9017227376300218  0.9614749114483058  0.9901249928203453  1.0000
  O   O2        1.0  0.09616390744405683  0.1553408856613529  0.40545139597525326  1.0000
