data_image0
_chemical_formula_structural       CaTi2CaSiOSiO
_chemical_formula_sum              "Ca2 Ti2 Si2 O2"
_cell_length_a       4.062801524553192
_cell_length_b       4.062328951160596
_cell_length_c       8.087525367736816
_cell_angle_alpha    89.96853581769675
_cell_angle_beta     89.98374665298321
_cell_angle_gamma    89.97365163459432

_space_group_name_H-M_alt    "P 1"
_space_group_IT_number       1

loop_
  _space_group_symop_operation_xyz
  'x, y, z'

loop_
  _atom_site_type_symbol
  _atom_site_label
  _atom_site_symmetry_multiplicity
  _atom_site_fract_x
  _atom_site_fract_y
  _atom_site_fract_z
  _atom_site_occupancy
  Ca  Ca1       1.0  0.9637739164477023  0.8502127624465644  0.553896553312658  1.0000
  Ti  Ti1       1.0  0.9637182541042596  0.3504057462607737  0.2038175680988451  1.0000
  Ti  Ti2       1.0  0.4638286060393098  0.8502115527369657  0.20383832593617687  1.0000
  Ca  Ca2       1.0  0.4637584846422201  0.3502389916419274  0.8537595142472318  1.0000
  Si  Si1       1.0  0.46379582642786277  0.3502666990081287  0.4835575795336844  1.0000
  O   O1        1.0  0.9638006068416528  0.8503418529872999  0.27117784211452134  1.0000
  Si  Si2       1.0  0.9637361364341344  0.8502124568339189  0.9241023361435112  1.0000
  O   O2        1.0  0.4637457417313898  0.35026847194752564  0.13648601930997264  1.0000
