data_image0
_chemical_formula_structural       CaTiCaTiOSi
_chemical_formula_sum              "Ca2 Ti2 O1 Si1"
_cell_length_a       4.075781825861839
_cell_length_b       4.075045387836619
_cell_length_c       7.945180892944336
_cell_angle_alpha    90.02120341287447
_cell_angle_beta     90.0024272215104
_cell_angle_gamma    90.00590378822531

_space_group_name_H-M_alt    "P 1"
_space_group_IT_number       1

loop_
  _space_group_symop_operation_xyz
  'x, y, z'

loop_
  _atom_site_type_symbol
  _atom_site_label
  _atom_site_symmetry_multiplicity
  _atom_site_fract_x
  _atom_site_fract_y
  _atom_site_fract_z
  _atom_site_occupancy
  Ca  Ca1       1.0  0.13609181515947824  0.18002205353286088  0.6837637058666441  1.0000
  Ti  Ti1       1.0  0.6360636862822631  0.17986495902672214  0.3610136142118033  1.0000
  Ca  Ca2       1.0  0.6361178066904545  0.6799848027708099  2.4276618115548487e-05  1.0000
  Ti  Ti2       1.0  0.13606912377481734  0.6798530862790441  0.3610036773565525  1.0000
  O   O1        1.0  0.13607402670775454  0.1798472309897736  0.35235661514546596  1.0000
  Si  Si1       1.0  0.6360889294966156  0.6799792715285762  0.5765165787617628  1.0000
