data_image0
_chemical_formula_structural       CaSiTiCaO3CaO4
_chemical_formula_sum              "Ca3 Si1 Ti1 O7"
_cell_length_a       3.468217010447788
_cell_length_b       5.026024854524675
_cell_length_c       9.20974063873291
_cell_angle_alpha    106.02467723897624
_cell_angle_beta     100.80732149432788
_cell_angle_gamma    89.95580444324328

_space_group_name_H-M_alt    "P 1"
_space_group_IT_number       1

loop_
  _space_group_symop_operation_xyz
  'x, y, z'

loop_
  _atom_site_type_symbol
  _atom_site_label
  _atom_site_symmetry_multiplicity
  _atom_site_fract_x
  _atom_site_fract_y
  _atom_site_fract_z
  _atom_site_occupancy
  Ca  Ca1       1.0  0.46083246733258015  0.432434344635421  0.6496249331631718  1.0000
  Si  Si1       1.0  0.14763214557766788  0.6327210620526837  0.025915970629942074  1.0000
  Ti  Ti1       1.0  0.3495701441014072  0.8438867262882818  0.43063242927882983  1.0000
  Ca  Ca2       1.0  0.048455044707922654  0.015129612638886623  0.8274300836563294  1.0000
  O   O1        1.0  0.24165760771837985  0.8550874027990035  0.21369499625412883  1.0000
  O   O2        1.0  0.8624293411173561  0.029627054556016642  0.4563317788201826  1.0000
  O   O3        1.0  0.16601986470046817  0.3286434527909996  0.062363032011102625  1.0000
  Ca  Ca3       1.0  0.7448172623430017  0.19221601662619225  0.22064647226476947  1.0000
  O   O4        1.0  0.33440319033521376  0.47949577006259986  0.40032776371470025  1.0000
  O   O5        1.0  0.04518551924298299  0.5102242279937246  0.8191371375610987  1.0000
  O   O6        1.0  0.46596299972017624  0.92893313009511  0.6620266261295057  1.0000
  O   O7        1.0  0.6375622743004048  0.7708885029816214  0.004629342124615785  1.0000
