data_image0
_chemical_formula_structural       TiSiCaO2CaO2
_chemical_formula_sum              "Ti1 Si1 Ca2 O4"
_cell_length_a       4.801280352149484
_cell_length_b       4.827245988572845
_cell_length_c       5.945287227630615
_cell_angle_alpha    113.8392876651956
_cell_angle_beta     113.64235961612488
_cell_angle_gamma    90.03668086959122

_space_group_name_H-M_alt    "P 1"
_space_group_IT_number       1

loop_
  _space_group_symop_operation_xyz
  'x, y, z'

loop_
  _atom_site_type_symbol
  _atom_site_label
  _atom_site_symmetry_multiplicity
  _atom_site_fract_x
  _atom_site_fract_y
  _atom_site_fract_z
  _atom_site_occupancy
  Ti  Ti1       1.0  0.0018463224879667894  0.3863608603322323  0.4419245251367428  1.0000
  Si  Si1       1.0  0.22409627029831605  0.08637834647150587  0.9559112654455242  1.0000
  Ca  Ca1       1.0  0.48515264532824076  0.8405468916919084  0.4465549307363629  1.0000
  O   O1        1.0  0.9391556406536306  0.18992067725414585  0.7585412329137508  1.0000
  O   O2        1.0  0.3108566044517531  0.7674702854902226  0.767869637118864  1.0000
  Ca  Ca2       1.0  0.7380870098683419  0.5829349544922081  0.9481206708323227  1.0000
  O   O3        1.0  0.5460434816690418  0.35165844984720557  0.13694172301057903  1.0000
  O   O4        1.0  0.10714574344025712  0.008917195448418031  0.15691525676367785  1.0000
