data_image0
_chemical_formula_structural       O2TiCa2O4TiO3Si2O2Ca
_chemical_formula_sum              "O11 Ti2 Ca3 Si2"
_cell_length_a       5.585651129256136
_cell_length_b       7.099780286187986
_cell_length_c       7.139692306518555
_cell_angle_alpha    75.32325645465686
_cell_angle_beta     77.3095464006649
_cell_angle_gamma    81.15503732660463

_space_group_name_H-M_alt    "P 1"
_space_group_IT_number       1

loop_
  _space_group_symop_operation_xyz
  'x, y, z'

loop_
  _atom_site_type_symbol
  _atom_site_label
  _atom_site_symmetry_multiplicity
  _atom_site_fract_x
  _atom_site_fract_y
  _atom_site_fract_z
  _atom_site_occupancy
  O   O1        1.0  0.8386202503533257  0.502673754024461  0.6653450341149832  1.0000
  O   O2        1.0  0.799389563223338  0.9981128084214312  0.9300138987159073  1.0000
  Ti  Ti1       1.0  0.9789831917665416  0.532985632450259  0.41714766599409187  1.0000
  Ca  Ca1       1.0  0.5258957596878813  0.06702438003170881  0.7172984509108757  1.0000
  Ca  Ca2       1.0  0.45276398528213896  0.9000374820871175  0.2881645564896861  1.0000
  O   O3        1.0  0.8102463153973805  0.37080232965287685  0.33254123181380457  1.0000
  O   O4        1.0  0.4584085211629539  0.799233525421624  0.6253221227610705  1.0000
  O   O5        1.0  0.23143524250541989  0.9884015430997798  0.023173817157438235  1.0000
  O   O6        1.0  0.5903417130239306  0.4556482291771485  0.03881220518347385  1.0000
  Ti  Ti2       1.0  0.4489543593270037  0.5701618499471117  0.8019672099820424  1.0000
  O   O7        1.0  0.416419566698329  0.18520544393651062  0.37837017467316225  1.0000
  O   O8        1.0  0.8762877885521531  0.7786538208828284  0.27225831560419994  1.0000
  O   O9        1.0  0.350450150250727  0.3692886743496987  0.7464629816186319  1.0000
  Si  Si1       1.0  0.5267334218660668  0.3912424656639676  0.28017528855086915  1.0000
  Si  Si2       1.0  0.0147984277510189  0.8528892873295283  0.030889419372254524  1.0000
  O   O10       1.0  0.12474649714071644  0.6456186855601656  0.962724920504039  1.0000
  O   O11       1.0  0.3254227191295175  0.5691531871133939  0.35145535816182144  1.0000
  Ca  Ca3       1.0  0.9843759895531362  0.3140515928728131  0.9505867899904791  1.0000
