data_image0
_chemical_formula_structural       SiTiCaO6
_chemical_formula_sum              "Si1 Ti1 Ca1 O6"
_cell_length_a       4.9747901158869645
_cell_length_b       5.021384249344175
_cell_length_c       5.024137496948242
_cell_angle_alpha    119.99454051364793
_cell_angle_beta     90.06165861708381
_cell_angle_gamma    90.05599639663967

_space_group_name_H-M_alt    "P 1"
_space_group_IT_number       1

loop_
  _space_group_symop_operation_xyz
  'x, y, z'

loop_
  _atom_site_type_symbol
  _atom_site_label
  _atom_site_symmetry_multiplicity
  _atom_site_fract_x
  _atom_site_fract_y
  _atom_site_fract_z
  _atom_site_occupancy
  Si  Si1       1.0  0.529195892753966  0.4769257351069321  0.5992917712536389  1.0000
  Ti  Ti1       1.0  0.5291700031763921  0.8101407756552109  0.2658004657179345  1.0000
  Ca  Ca1       1.0  0.029214797810860154  0.14350934739732119  0.9325615081136851  1.0000
  O   O1        1.0  0.3244061940680723  0.16905038893501184  0.5678237286852673  1.0000
  O   O2        1.0  0.32436051196368226  0.7526701421859318  0.9058641141701979  1.0000
  O   O3        1.0  0.32421231261510525  0.507622862814897  0.32289899874821715  1.0000
  O   O4        1.0  0.734082150834925  0.1701344554757262  0.32356661640678763  1.0000
  O   O5        1.0  0.7341726595978185  0.7532442628935562  0.568369423515535  1.0000
  O   O6        1.0  0.7338892757769673  0.5079545048197874  0.9068534951438247  1.0000
