data_image0
_chemical_formula_structural       CaSiO3CaOSiCaOSiOTiSiO6
_chemical_formula_sum              "Ca3 Si4 O12 Ti1"
_cell_length_a       5.373016528144774
_cell_length_b       6.8299107107102
_cell_length_c       6.842494010925294
_cell_angle_alpha    86.03722219052631
_cell_angle_beta     78.94715136119568
_cell_angle_gamma    78.9537223713147

_space_group_name_H-M_alt    "P 1"
_space_group_IT_number       1

loop_
  _space_group_symop_operation_xyz
  'x, y, z'

loop_
  _atom_site_type_symbol
  _atom_site_label
  _atom_site_symmetry_multiplicity
  _atom_site_fract_x
  _atom_site_fract_y
  _atom_site_fract_z
  _atom_site_occupancy
  Ca  Ca1       1.0  0.09308265497832728  0.38667319131208633  0.939645076362969  1.0000
  Si  Si1       1.0  0.08748467180903645  0.30699434867746744  0.4379441162844385  1.0000
  O   O1        1.0  0.6811581823226541  0.5600586500696474  0.03601627606621461  1.0000
  O   O2        1.0  0.019268472188389712  0.4763865428538365  0.6036253873762468  1.0000
  O   O3        1.0  0.3469972916478057  0.35187118458958144  0.26526850160681326  1.0000
  Ca  Ca2       1.0  0.5931627226661147  0.5977613216016794  0.7290447878285234  1.0000
  O   O4        1.0  0.8396252424610706  0.061611319186989796  0.9753251388990118  1.0000
  Si  Si2       1.0  0.605854881037763  0.06779836548700188  0.839519677164772  1.0000
  Ca  Ca3       1.0  0.5938923570747392  0.9868320005099737  0.34112776921626925  1.0000
  O   O5        1.0  0.48460391841165446  0.6652309311100534  0.4158873367667791  1.0000
  Si  Si3       1.0  0.0990999808962729  0.8884756648716572  0.020216902988807333  1.0000
  O   O6        1.0  0.16717434167762893  0.722897638756101  0.8507362069815626  1.0000
  Ti  Ti1       1.0  0.09350928182703044  0.784506496925381  0.5424168746289448  1.0000
  Si  Si4       1.0  0.580856997401579  0.4879418937199137  0.2587690134723685  1.0000
  O   O7        1.0  0.3476722382164514  0.010368028102702709  0.004571745585923413  1.0000
  O   O8        1.0  0.5052760030300558  0.2906676887773032  0.7668964591187769  1.0000
  O   O9        1.0  0.014484132411967499  0.8139167043351792  0.24703471070363  1.0000
  O   O10       1.0  0.8388905376269656  0.32239767627361926  0.31634877070531064  1.0000
  O   O11       1.0  0.7025757015882155  0.9107662917689002  0.6622405357040027  1.0000
  O   O12       1.0  0.17234929740414248  0.07989506666957209  0.5126104862768873  1.0000
