data_image0
_chemical_formula_structural       TiCa2O2SiTiSi
_chemical_formula_sum              "Ti2 Ca2 O2 Si2"
_cell_length_a       2.9283657274924995
_cell_length_b       3.3410240196369014
_cell_length_c       12.787522315979006
_cell_angle_alpha    90.01385412822229
_cell_angle_beta     96.42580347116113
_cell_angle_gamma    89.97229925738715

_space_group_name_H-M_alt    "P 1"
_space_group_IT_number       1

loop_
  _space_group_symop_operation_xyz
  'x, y, z'

loop_
  _atom_site_type_symbol
  _atom_site_label
  _atom_site_symmetry_multiplicity
  _atom_site_fract_x
  _atom_site_fract_y
  _atom_site_fract_z
  _atom_site_occupancy
  Ti  Ti1       1.0  0.6182333596605286  0.47568968721254073  0.2590039974784274  1.0000
  Ca  Ca1       1.0  0.7598385475695254  0.47545152234040244  0.5420951076597429  1.0000
  Ca  Ca2       1.0  0.004334614009933318  0.9754052718016692  0.028621441896844256  1.0000
  O   O1        1.0  0.46100559665013807  0.47519187745378133  0.9419877236996776  1.0000
  O   O2        1.0  0.06725457822356923  0.47558619682778236  0.1551363368913031  1.0000
  Si  Si1       1.0  0.17620258440260864  0.9757125010154623  0.37594878628487266  1.0000
  Ti  Ti2       1.0  0.9000948836083152  0.4751312675652524  0.821192005009175  1.0000
  Si  Si2       1.0  0.34467155475816197  0.9751354572862355  0.7092996692219384  1.0000
