data_image0
_chemical_formula_structural       O3CaSiOSiO3Ti
_chemical_formula_sum              "O7 Ca1 Si2 Ti1"
_cell_length_a       5.523546733906551
_cell_length_b       5.6059122877580485
_cell_length_c       6.07924747467041
_cell_angle_alpha    95.21070610345635
_cell_angle_beta     98.08189958486153
_cell_angle_gamma    114.1222000730772

_space_group_name_H-M_alt    "P 1"
_space_group_IT_number       1

loop_
  _space_group_symop_operation_xyz
  'x, y, z'

loop_
  _atom_site_type_symbol
  _atom_site_label
  _atom_site_symmetry_multiplicity
  _atom_site_fract_x
  _atom_site_fract_y
  _atom_site_fract_z
  _atom_site_occupancy
  O   O1        1.0  0.8788258386883065  0.021237116637439806  0.9867223268555834  1.0000
  O   O2        1.0  0.16161834051690907  0.3849807383721297  0.35632503838744745  1.0000
  O   O3        1.0  0.806737784602831  0.4683385355659674  0.0633052752585258  1.0000
  Ca  Ca1       1.0  0.01471375983370588  0.04633504435398995  0.6100011553039919  1.0000
  Si  Si1       1.0  0.01966380636502014  0.33411529493563713  0.0870742396410384  1.0000
  O   O4        1.0  0.28827409919622826  0.8806525103222769  0.5676027705685635  1.0000
  Si  Si2       1.0  0.40923030145564365  0.6868777085758335  0.4778936496563497  1.0000
  O   O5        1.0  0.6069796116777001  0.8013110598352131  0.29492524762606365  1.0000
  O   O6        1.0  0.6088191565954331  0.6331145552513704  0.6744487633328679  1.0000
  O   O7        1.0  0.2459025271408236  0.4500148400860881  0.9299174466114789  1.0000
  Ti  Ti1       1.0  0.6288194719172503  0.6674917177449965  0.9942367126772297  1.0000
