data_image0
_chemical_formula_structural       SiCa2SiTi
_chemical_formula_sum              "Si2 Ca2 Ti1"
_cell_length_a       4.619709985803094
_cell_length_b       5.266188602902304
_cell_length_c       5.271482467651367
_cell_angle_alpha    89.9514740137007
_cell_angle_beta     89.99505061745958
_cell_angle_gamma    89.99069295712273

_space_group_name_H-M_alt    "P 1"
_space_group_IT_number       1

loop_
  _space_group_symop_operation_xyz
  'x, y, z'

loop_
  _atom_site_type_symbol
  _atom_site_label
  _atom_site_symmetry_multiplicity
  _atom_site_fract_x
  _atom_site_fract_y
  _atom_site_fract_z
  _atom_site_occupancy
  Si  Si1       1.0  0.7067896629161667  0.36543137353102995  0.20078387967050718  1.0000
  Ca  Ca1       1.0  0.7077138790778893  0.3652951792076108  0.7007999559597887  1.0000
  Ca  Ca2       1.0  0.7070709859143667  0.8652888013691318  0.20091080252859247  1.0000
  Si  Si2       1.0  0.20777544728011144  0.8647947490321277  0.701877137429765  1.0000
  Ti  Ti1       1.0  0.2068602336077711  0.3658987801840055  0.20066080817811607  1.0000
