data_image0
_chemical_formula_structural       OTiCaTiSi2
_chemical_formula_sum              "O1 Ti2 Ca1 Si2"
_cell_length_a       3.1741461763197436
_cell_length_b       3.1801075935646406
_cell_length_c       10.618517875671387
_cell_angle_alpha    90.00024156108412
_cell_angle_beta     89.99860914587188
_cell_angle_gamma    119.98870670854556

_space_group_name_H-M_alt    "P 1"
_space_group_IT_number       1

loop_
  _space_group_symop_operation_xyz
  'x, y, z'

loop_
  _atom_site_type_symbol
  _atom_site_label
  _atom_site_symmetry_multiplicity
  _atom_site_fract_x
  _atom_site_fract_y
  _atom_site_fract_z
  _atom_site_occupancy
  O   O1        1.0  0.12571628423835635  0.8209651481720605  0.7160845978918231  1.0000
  Ti  Ti1       1.0  0.45920847221797045  0.48778616529119456  0.8360529819825138  1.0000
  Ca  Ca1       1.0  0.7926274203180231  0.15457739269523377  0.5782243526350875  1.0000
  Ti  Ti2       1.0  0.4590426761443964  0.4876023021634533  0.18076788523185258  1.0000
  Si  Si1       1.0  0.12607027037098079  0.8213695820632347  0.35614888627690094  1.0000
  Si  Si2       1.0  0.7919480926476758  0.1537938384137824  0.007617716504208807  1.0000
