data_image0
_chemical_formula_structural       Ca2OSiOTiO4
_chemical_formula_sum              "Ca2 O6 Si1 Ti1"
_cell_length_a       4.520425800229823
_cell_length_b       5.10605998330782
_cell_length_c       5.108682632446289
_cell_angle_alpha    89.86458717059648
_cell_angle_beta     90.00232476877159
_cell_angle_gamma    89.89170302461734

_space_group_name_H-M_alt    "P 1"
_space_group_IT_number       1

loop_
  _space_group_symop_operation_xyz
  'x, y, z'

loop_
  _atom_site_type_symbol
  _atom_site_label
  _atom_site_symmetry_multiplicity
  _atom_site_fract_x
  _atom_site_fract_y
  _atom_site_fract_z
  _atom_site_occupancy
  Ca  Ca1       1.0  0.006617105714656142  0.5905256224893584  0.8366654417604542  1.0000
  Ca  Ca2       1.0  0.007043442511764024  0.09053520156352407  0.3367209980352756  1.0000
  O   O1        1.0  0.8263557451513082  0.5898243903845724  0.3368442257066533  1.0000
  Si  Si1       1.0  0.4599646928295518  0.5901482684357193  0.33673830053733095  1.0000
  O   O2        1.0  0.35916866599747704  0.8278493202367473  0.5744342455999224  1.0000
  Ti  Ti1       1.0  0.4602761321071432  0.09013864022463026  0.8367165927914545  1.0000
  O   O3        1.0  0.35832544860283694  0.8275596521108912  0.09915817985801469  1.0000
  O   O4        1.0  0.35843272593614167  0.352662050392013  0.5742039994455245  1.0000
  O   O5        1.0  0.8597438026873591  0.08991459123249837  0.8366671754411301  1.0000
  O   O6        1.0  0.3594839572275275  0.3523402647626214  0.09907511638893243  1.0000
