data_image0
_chemical_formula_structural       CaTiCa3SiO4CaO2SiO4
_chemical_formula_sum              "Ca5 Ti1 Si2 O10"
_cell_length_a       5.617690660437048
_cell_length_b       6.368935213143534
_cell_length_c       8.557952880859375
_cell_angle_alpha    92.32752605704826
_cell_angle_beta     108.16191205002212
_cell_angle_gamma    89.92584031480139

_space_group_name_H-M_alt    "P 1"
_space_group_IT_number       1

loop_
  _space_group_symop_operation_xyz
  'x, y, z'

loop_
  _atom_site_type_symbol
  _atom_site_label
  _atom_site_symmetry_multiplicity
  _atom_site_fract_x
  _atom_site_fract_y
  _atom_site_fract_z
  _atom_site_occupancy
  Ca  Ca1       1.0  0.8422308860935469  0.26510070632270194  0.769827512677133  1.0000
  Ti  Ti1       1.0  0.8326055954476862  0.7434816149409481  0.6296511238142091  1.0000
  Ca  Ca2       1.0  0.8751534918340658  0.6790621139625824  0.9964972991168527  1.0000
  Ca  Ca3       1.0  0.31244678221946065  0.049289331959601224  0.4205553937775407  1.0000
  Ca  Ca4       1.0  0.33301150711223504  0.07482674914501158  0.9509384395179952  1.0000
  Si  Si1       1.0  0.33234578302193835  0.434737217317816  0.6364735426668705  1.0000
  O   O1        1.0  0.4011301189840283  0.19662584429483188  0.7137495012949345  1.0000
  O   O2        1.0  0.07537976160614895  0.5148161248356279  0.6717758239610755  1.0000
  O   O3        1.0  0.5946320628369478  0.5751408583582215  0.7281924940418006  1.0000
  O   O4        1.0  0.9581130044258226  0.9173388260910383  0.821956950789519  1.0000
  Ca  Ca5       1.0  0.41826398024012834  0.480619692790444  0.22748214798676772  1.0000
  O   O5        1.0  0.2937559796861232  0.40122819141950816  0.4401645194557826  1.0000
  O   O6        1.0  0.562591431694283  0.14025698618896518  0.23371311022999902  1.0000
  Si  Si2       1.0  0.6912459585702072  0.9074349967734086  0.2461105130257271  1.0000
  O   O7        1.0  0.6251899294874713  0.7985443025091663  0.4028598583819608  1.0000
  O   O8        1.0  0.5251600881382498  0.7672327494461686  0.08035428498598618  1.0000
  O   O9        1.0  0.09940519801379175  0.37046631962829246  0.011931613994925195  1.0000
  O   O10       1.0  0.9814195647301616  0.8882132367207097  0.248138627726699  1.0000
