data_image0
_chemical_formula_structural       CaO2Si
_chemical_formula_sum              "Ca1 O2 Si1"
_cell_length_a       3.5102217459664873
_cell_length_b       3.515530019941549
_cell_length_c       6.0108962059021
_cell_angle_alpha    73.0724167906902
_cell_angle_beta     73.08725733986834
_cell_angle_gamma    60.39034107743855

_space_group_name_H-M_alt    "P 1"
_space_group_IT_number       1

loop_
  _space_group_symop_operation_xyz
  'x, y, z'

loop_
  _atom_site_type_symbol
  _atom_site_label
  _atom_site_symmetry_multiplicity
  _atom_site_fract_x
  _atom_site_fract_y
  _atom_site_fract_z
  _atom_site_occupancy
  Ca  Ca1       1.0  0.2650248825967252  0.7724487563275256  0.5721026558457887  1.0000
  O   O1        1.0  0.8719037560239095  0.35026728124143197  0.8018853783155419  1.0000
  O   O2        1.0  0.6892578549306719  0.17229878433058363  0.3414512581312855  1.0000
  Si  Si1       1.0  0.55309921172624  0.4178478882991023  0.07149021015780713  1.0000
