data_image0
_chemical_formula_structural       TiOCa2SiO5
_chemical_formula_sum              "Ti1 O6 Ca2 Si1"
_cell_length_a       5.258267968503921
_cell_length_b       5.257400141796217
_cell_length_c       5.261031150817871
_cell_angle_alpha    60.342241989281085
_cell_angle_beta     60.38735605402503
_cell_angle_gamma    60.39437594426075

_space_group_name_H-M_alt    "P 1"
_space_group_IT_number       1

loop_
  _space_group_symop_operation_xyz
  'x, y, z'

loop_
  _atom_site_type_symbol
  _atom_site_label
  _atom_site_symmetry_multiplicity
  _atom_site_fract_x
  _atom_site_fract_y
  _atom_site_fract_z
  _atom_site_occupancy
  Ti  Ti1       1.0  0.40173912706486153  0.5168252736239444  0.3461897182148373  1.0000
  O   O1        1.0  0.6637499102593697  0.30214629342754323  0.038884039969841355  1.0000
  Ca  Ca1       1.0  0.6526182851095899  0.7672446892604943  0.5971875455480373  1.0000
  Ca  Ca2       1.0  0.15082028796439256  0.26586000944761884  0.09555358795047218  1.0000
  Si  Si1       1.0  0.9018522644883553  0.016665698222118275  0.846280673515831  1.0000
  O   O2        1.0  0.18795403328125163  0.20830653176587668  0.6092116626159665  1.0000
  O   O3        1.0  0.0934925301260744  0.7778769438391232  0.13236561937750246  1.0000
  O   O4        1.0  0.7099874873457501  0.2551661535325176  0.5603124914479773  1.0000
  O   O5        1.0  0.13961453718672343  0.7309876021362132  0.6537123787255348  1.0000
  O   O6        1.0  0.6154164118798033  0.8249311306836274  0.08327872877225308  1.0000
