data_image0
_chemical_formula_structural       TiCa3Ti3OSiCaSiTiO2Si
_chemical_formula_sum              "Ti5 Ca4 O3 Si3"
_cell_length_a       5.877524084286073
_cell_length_b       5.889508001519841
_cell_length_c       8.412995338439941
_cell_angle_alpha    90.39363316540077
_cell_angle_beta     109.74616644562006
_cell_angle_gamma    90.78003738143451

_space_group_name_H-M_alt    "P 1"
_space_group_IT_number       1

loop_
  _space_group_symop_operation_xyz
  'x, y, z'

loop_
  _atom_site_type_symbol
  _atom_site_label
  _atom_site_symmetry_multiplicity
  _atom_site_fract_x
  _atom_site_fract_y
  _atom_site_fract_z
  _atom_site_occupancy
  Ti  Ti1       1.0  0.20420306600153829  0.7080999421746219  0.20911734846047642  1.0000
  Ca  Ca1       1.0  0.2706756367874238  0.43554295778516267  0.8553251016073835  1.0000
  Ca  Ca2       1.0  0.6175881470593925  0.472344930483273  0.5370714933450553  1.0000
  Ca  Ca3       1.0  0.8070878358544272  0.9734999986832438  0.8584353096487438  1.0000
  Ti  Ti2       1.0  0.20790541262813522  0.2202737536123266  0.2192999385672987  1.0000
  Ti  Ti3       1.0  0.714697131934145  0.2188079787659409  0.21029904465653465  1.0000
  Ti  Ti4       1.0  0.7210168134673522  0.7039817408775791  0.21458837220412957  1.0000
  O   O1        1.0  0.4657631686187024  0.46240552593112827  0.22529711082787265  1.0000
  Si  Si1       1.0  0.07731670961785246  0.46701705705865165  0.4499779927161493  1.0000
  Ca  Ca4       1.0  0.11911275165493163  0.9658173278322374  0.5345916587884004  1.0000
  Si  Si2       1.0  0.8312940285796435  0.47373943917727923  0.9753512270104729  1.0000
  Ti  Ti5       1.0  0.3657519230473748  0.9421859426131367  0.9847065825249777  1.0000
  O   O2        1.0  0.14077984440861266  0.06692856196636493  0.7942686198862875  1.0000
  O   O3        1.0  0.9668314706821264  0.9647227314074815  0.22150626607141521  1.0000
  Si  Si3       1.0  0.5620253013525136  0.9665709327908752  0.41860823018120047  1.0000
