data_image0
_chemical_formula_structural       CaSiOTiSiO7
_chemical_formula_sum              "Ca1 Si2 O8 Ti1"
_cell_length_a       5.353773782844166
_cell_length_b       5.351002921067958
_cell_length_c       6.530316352844238
_cell_angle_alpha    89.96192419990984
_cell_angle_beta     89.9847780114183
_cell_angle_gamma    119.91505145065383

_space_group_name_H-M_alt    "P 1"
_space_group_IT_number       1

loop_
  _space_group_symop_operation_xyz
  'x, y, z'

loop_
  _atom_site_type_symbol
  _atom_site_label
  _atom_site_symmetry_multiplicity
  _atom_site_fract_x
  _atom_site_fract_y
  _atom_site_fract_z
  _atom_site_occupancy
  Ca  Ca1       1.0  0.4442530898543151  0.3668035636222941  0.43539606481769605  1.0000
  Si  Si1       1.0  0.7779089922467827  0.033579340001251  0.6785391758860138  1.0000
  O   O1        1.0  0.7775038346080455  0.033175652843463715  0.4253853032382624  1.0000
  Ti  Ti1       1.0  0.44432825907199214  0.3668329529306467  0.9354117949826937  1.0000
  Si  Si2       1.0  0.11070649658212793  0.6999992023281388  0.19233285425255717  1.0000
  O   O2        1.0  0.1110816179701386  0.7000179874331164  0.44549707098062236  1.0000
  O   O3        1.0  0.2794145409503728  0.5315520025740009  0.12186703633653122  1.0000
  O   O4        1.0  0.6092282089573904  0.6966843587607118  0.7491277063477191  1.0000
  O   O5        1.0  0.1145206195388062  0.20202347190400657  0.7490267522114914  1.0000
  O   O6        1.0  0.2794604436611114  0.036947492398357484  0.12192250795320535  1.0000
  O   O7        1.0  0.6091358725680716  0.20196819655537923  0.7489580774387421  1.0000
  O   O8        1.0  0.774076092098504  0.5314926868651597  0.12189688857368208  1.0000
