data_image0
_chemical_formula_structural       CaTiOTiCaOSi2
_chemical_formula_sum              "Ca2 Ti2 O2 Si2"
_cell_length_a       4.0599446685780975
_cell_length_b       4.0552840843536275
_cell_length_c       8.104589462280273
_cell_angle_alpha    89.97048925747916
_cell_angle_beta     90.00793235416556
_cell_angle_gamma    89.99199752339157

_space_group_name_H-M_alt    "P 1"
_space_group_IT_number       1

loop_
  _space_group_symop_operation_xyz
  'x, y, z'

loop_
  _atom_site_type_symbol
  _atom_site_label
  _atom_site_symmetry_multiplicity
  _atom_site_fract_x
  _atom_site_fract_y
  _atom_site_fract_z
  _atom_site_occupancy
  Ca  Ca1       1.0  0.632563018701286  0.07133714191642329  0.8081671759285418  1.0000
  Ti  Ti1       1.0  0.632642940126433  0.5711117763532536  0.15831155504852498  1.0000
  O   O1        1.0  0.6326653311094963  0.07117293931344232  0.090761042482401  1.0000
  Ti  Ti2       1.0  0.13268377701783832  0.07126905084492016  0.15810978608746157  1.0000
  Ca  Ca2       1.0  0.13258684239798607  0.5712343157889492  0.5082542011799253  1.0000
  O   O2        1.0  0.13265377376185616  0.5712162872464299  0.22566122599364924  1.0000
  Si  Si1       1.0  0.13258710966492285  0.5712880950067528  0.8785199053201233  1.0000
  Si  Si2       1.0  0.6325914699571644  0.0712589456707796  0.4379008645929015  1.0000
