data_image0
_chemical_formula_structural       O3TiCaO2SiO2SiO
_chemical_formula_sum              "O8 Ti1 Ca1 Si2"
_cell_length_a       5.861484218712745
_cell_length_b       6.5050798118101705
_cell_length_c       5.5911126136779785
_cell_angle_alpha    96.98398038777701
_cell_angle_beta     77.18705309753146
_cell_angle_gamma    70.96455195540617

_space_group_name_H-M_alt    "P 1"
_space_group_IT_number       1

loop_
  _space_group_symop_operation_xyz
  'x, y, z'

loop_
  _atom_site_type_symbol
  _atom_site_label
  _atom_site_symmetry_multiplicity
  _atom_site_fract_x
  _atom_site_fract_y
  _atom_site_fract_z
  _atom_site_occupancy
  O   O1        1.0  0.7793112229256833  0.32843944207387527  0.28000690226726904  1.0000
  O   O2        1.0  0.18247076936153783  0.643917092382205  0.7853011415563672  1.0000
  O   O3        1.0  0.5725881283950113  0.651288617185319  0.998243739007609  1.0000
  Ti  Ti1       1.0  0.7364988709461757  0.10255723518661598  0.49025035556681595  1.0000
  Ca  Ca1       1.0  0.05580299166748328  0.43898589862272386  0.5341847722413543  1.0000
  O   O4        1.0  0.3310819611007745  0.4391366462709697  0.15169038749958752  1.0000
  O   O5        1.0  0.7926924493328544  0.23212896134951713  0.7825132978327752  1.0000
  Si  Si1       1.0  0.6444339625780439  0.3945321805789594  0.06238428144649955  1.0000
  O   O6        1.0  0.4226322529886127  0.1602036600473146  0.5218836613614327  1.0000
  O   O7        1.0  0.07527297691998015  0.9016626673460357  0.23955411847260297  1.0000
  Si  Si2       1.0  0.269400910437269  0.676395103421547  0.03296850698200052  1.0000
  O   O8        1.0  0.8162917337278434  0.7939795774120065  0.4959269238162997  1.0000
