data_image0
_chemical_formula_structural       OSiOCa
_chemical_formula_sum              "O2 Si1 Ca1"
_cell_length_a       3.5153097952357624
_cell_length_b       3.5215233643290516
_cell_length_c       6.018109321594238
_cell_angle_alpha    73.05902222035134
_cell_angle_beta     73.03584162902867
_cell_angle_gamma    60.2488891169763

_space_group_name_H-M_alt    "P 1"
_space_group_IT_number       1

loop_
  _space_group_symop_operation_xyz
  'x, y, z'

loop_
  _atom_site_type_symbol
  _atom_site_label
  _atom_site_symmetry_multiplicity
  _atom_site_fract_x
  _atom_site_fract_y
  _atom_site_fract_z
  _atom_site_occupancy
  O   O1        1.0  0.15348784803979393  0.4434133943910379  0.7810991906935639  1.0000
  Si  Si1       1.0  0.22613621575992093  0.12817532816030033  0.050924389897401987  1.0000
  O   O2        1.0  0.974230948636808  0.2612681595887864  0.3210295058288265  1.0000
  Ca  Ca1       1.0  0.57601665975338  0.8357951372882739  0.5513726630498315  1.0000
