data_image0
_chemical_formula_structural       Ti2SiCaOTiO6CaO
_chemical_formula_sum              "Ti3 Si1 Ca2 O8"
_cell_length_a       5.434825195222532
_cell_length_b       6.21118410319732
_cell_length_c       6.496092796325684
_cell_angle_alpha    81.71518158884169
_cell_angle_beta     92.74599827679639
_cell_angle_gamma    77.6777739277619

_space_group_name_H-M_alt    "P 1"
_space_group_IT_number       1

loop_
  _space_group_symop_operation_xyz
  'x, y, z'

loop_
  _atom_site_type_symbol
  _atom_site_label
  _atom_site_symmetry_multiplicity
  _atom_site_fract_x
  _atom_site_fract_y
  _atom_site_fract_z
  _atom_site_occupancy
  Ti  Ti1       1.0  0.4385446151360069  0.11047971469643417  0.4168159707250199  1.0000
  Ti  Ti2       1.0  0.2980934579038688  0.6937250593743624  0.5110966827098515  1.0000
  Si  Si1       1.0  0.8117956271041464  0.7355428176575539  0.8019113496137484  1.0000
  Ca  Ca1       1.0  0.8184619031794085  0.47061828713859294  0.31340230298245336  1.0000
  O   O1        1.0  0.10141179179658488  0.6238892441591233  0.7470490223421029  1.0000
  Ti  Ti3       1.0  0.002269111421401068  0.0020169926178126296  0.1400515196933501  1.0000
  O   O2        1.0  0.808035542224532  0.9758313626594126  0.8842589195924291  1.0000
  O   O3        1.0  0.09048479853994129  0.7028375645472397  0.26742320010269305  1.0000
  O   O4        1.0  0.19212346693057267  0.2215694024246949  0.18074582096389882  1.0000
  O   O5        1.0  0.6968919249236466  0.5650022021097003  0.9639657039259166  1.0000
  O   O6        1.0  0.4893623683024601  0.3738798708650295  0.5413112978416946  1.0000
  O   O7        1.0  0.7082253192045618  0.14351837693137498  0.23947520375007553  1.0000
  Ca  Ca2       1.0  0.461340818379451  0.30862715919998757  0.9069007652190371  1.0000
  O   O8        1.0  0.6269823222082513  0.7980386232367906  0.5752106588418842  1.0000
