data_image0
_chemical_formula_structural       SiCaTiO2CaO4
_chemical_formula_sum              "Si1 Ca2 Ti1 O6"
_cell_length_a       5.277512112045263
_cell_length_b       5.281263211253335
_cell_length_c       5.287179946899414
_cell_angle_alpha    59.95119010678548
_cell_angle_beta     89.99307669292955
_cell_angle_gamma    60.196256787703106

_space_group_name_H-M_alt    "P 1"
_space_group_IT_number       1

loop_
  _space_group_symop_operation_xyz
  'x, y, z'

loop_
  _atom_site_type_symbol
  _atom_site_label
  _atom_site_symmetry_multiplicity
  _atom_site_fract_x
  _atom_site_fract_y
  _atom_site_fract_z
  _atom_site_occupancy
  Si  Si1       1.0  0.8078476979456007  0.1722800522347511  0.24267318086535614  1.0000
  Ca  Ca1       1.0  0.05679295661912516  0.6723933205606513  0.9933854851264254  1.0000
  Ti  Ti1       1.0  0.30791231466430924  0.17228691599573231  0.742705405178793  1.0000
  O   O1        1.0  0.6139474995019107  0.1346494216844674  0.5266041459955166  1.0000
  O   O2        1.0  0.09517958657305842  0.12844803829167326  0.4769590238420941  1.0000
  Ca  Ca2       1.0  0.5590393404380716  0.6720945731806108  0.49205585233147453  1.0000
  O   O3        1.0  0.5737156317969182  0.650392134957216  0.04499502686493938  1.0000
  O   O4        1.0  0.0017277976424236116  0.21010055343526177  0.958669346219044  1.0000
  O   O5        1.0  0.5205940359665785  0.21611525487190328  0.008463488268794162  1.0000
  O   O6        1.0  0.042159966517425436  0.6941988921255166  0.44044512159884225  1.0000
