data_image0
_chemical_formula_structural       CaOSiOCaSiO4
_chemical_formula_sum              "Ca2 O6 Si2"
_cell_length_a       5.110487093617417
_cell_length_b       5.124462961133916
_cell_length_c       5.116915702819824
_cell_angle_alpha    59.97154727738393
_cell_angle_beta     89.89146396812278
_cell_angle_gamma    60.013685224455344

_space_group_name_H-M_alt    "P 1"
_space_group_IT_number       1

loop_
  _space_group_symop_operation_xyz
  'x, y, z'

loop_
  _atom_site_type_symbol
  _atom_site_label
  _atom_site_symmetry_multiplicity
  _atom_site_fract_x
  _atom_site_fract_y
  _atom_site_fract_z
  _atom_site_occupancy
  Ca  Ca1       1.0  0.8895699438540278  0.57756664018297  0.831690199877398  1.0000
  O   O1        1.0  0.41532411363294436  0.05542753173656364  0.8281403788319842  1.0000
  Si  Si1       1.0  0.13977478873146162  0.07728266729094019  0.5819413818254103  1.0000
  O   O2        1.0  0.9182279804793437  0.04959750669516083  0.8603268031287029  1.0000
  Ca  Ca2       1.0  0.38996103571358176  0.5770145443145052  0.3322463462680697  1.0000
  Si  Si2       1.0  0.6397963223098305  0.07729872688087353  0.08185616617164208  1.0000
  O   O3        1.0  0.3613495952736684  0.10501804293108359  0.30352054792958627  1.0000
  O   O4        1.0  0.8641736286401922  0.09928859545212285  0.33560129046344506  1.0000
  O   O5        1.0  0.8867853346672634  0.5773337645050528  0.3568875936813778  1.0000
  O   O6        1.0  0.3927896091287685  0.5773407405864942  0.806908265421944  1.0000
