data_image0
_chemical_formula_structural       OTiO2TiO3CaOSiO
_chemical_formula_sum              "O8 Ti2 Ca1 Si1"
_cell_length_a       3.7081590631115833
_cell_length_b       3.748416736947355
_cell_length_c       10.351133346557619
_cell_angle_alpha    90.08253851026181
_cell_angle_beta     100.25608526121897
_cell_angle_gamma    90.06289487573322

_space_group_name_H-M_alt    "P 1"
_space_group_IT_number       1

loop_
  _space_group_symop_operation_xyz
  'x, y, z'

loop_
  _atom_site_type_symbol
  _atom_site_label
  _atom_site_symmetry_multiplicity
  _atom_site_fract_x
  _atom_site_fract_y
  _atom_site_fract_z
  _atom_site_occupancy
  O   O1        1.0  0.2084240591919063  0.1309744989605354  0.7232352683678536  1.0000
  Ti  Ti1       1.0  0.6746296053216034  0.13151204831090196  0.6552754331821725  1.0000
  O   O2        1.0  0.30039821835838953  0.6312131866250973  0.9070346369054032  1.0000
  O   O3        1.0  0.7888753118522555  0.13140027733454582  0.884233531777671  1.0000
  Ti  Ti2       1.0  0.4961377534875908  0.13093428339976657  0.29817164328168366  1.0000
  O   O4        1.0  0.5845118485316082  0.1309464598101931  0.4750359932635882  1.0000
  O   O5        1.0  0.37504935118423427  0.13077746060230883  0.05688277477433265  1.0000
  O   O6        1.0  0.6793777158589484  0.6311829224313344  0.665904653257804  1.0000
  Ca  Ca1       1.0  0.893503484147705  0.6302361925974551  0.09225088246758117  1.0000
  O   O7        1.0  0.9710460521820274  0.13091235396764464  0.24795093919250438  1.0000
  Si  Si1       1.0  0.29258675581637544  0.1303917970253171  0.8912773103122664  1.0000
  O   O8        1.0  0.47214498564469226  0.6308913082531932  0.2500084145732265  1.0000
