data_image0
_chemical_formula_structural       CaTiSiO
_chemical_formula_sum              "Ca1 Ti1 Si1 O1"
_cell_length_a       3.8668401699445227
_cell_length_b       3.869576273378163
_cell_length_c       5.9065399169921875
_cell_angle_alpha    90.05412492484342
_cell_angle_beta     90.0411953739236
_cell_angle_gamma    120.07168037890698

_space_group_name_H-M_alt    "P 1"
_space_group_IT_number       1

loop_
  _space_group_symop_operation_xyz
  'x, y, z'

loop_
  _atom_site_type_symbol
  _atom_site_label
  _atom_site_symmetry_multiplicity
  _atom_site_fract_x
  _atom_site_fract_y
  _atom_site_fract_z
  _atom_site_occupancy
  Ca  Ca1       1.0  0.02750126196159383  0.35197038231283423  0.7498732440580487  1.0000
  Ti  Ti1       1.0  0.6941258758806584  0.6852432940815142  0.29725398814769166  1.0000
  Si  Si1       1.0  0.3609613127835819  0.01830630023512357  0.11065981730967209  1.0000
  O   O1        1.0  0.6942793526554932  0.6852266624392962  0.6028907034734359  1.0000
