data_image0
_chemical_formula_structural       O2TiO2SiCaO2SiO2
_chemical_formula_sum              "O8 Ti1 Si2 Ca1"
_cell_length_a       5.644656378271315
_cell_length_b       5.642747979349903
_cell_length_c       5.656219482421874
_cell_angle_alpha    106.4987946700726
_cell_angle_beta     106.5713178471353
_cell_angle_gamma    115.41672418334267

_space_group_name_H-M_alt    "P 1"
_space_group_IT_number       1

loop_
  _space_group_symop_operation_xyz
  'x, y, z'

loop_
  _atom_site_type_symbol
  _atom_site_label
  _atom_site_symmetry_multiplicity
  _atom_site_fract_x
  _atom_site_fract_y
  _atom_site_fract_z
  _atom_site_occupancy
  O   O1        1.0  0.5943155601116785  0.7835472998424078  0.4359149639834315  1.0000
  O   O2        1.0  0.13120237061320097  0.19078757615133662  0.9138554805535335  1.0000
  Ti  Ti1       1.0  0.9753440268338789  0.3145425334678513  0.6337030560388964  1.0000
  O   O3        1.0  0.5936290548065304  0.1317007487301909  0.7857084924105903  1.0000
  O   O4        1.0  0.00930341275974862  0.6680407074074127  0.9169255032090206  1.0000
  Si  Si1       1.0  0.41379472607083845  0.7738261227654171  0.6134986785940919  1.0000
  Ca  Ca1       1.0  0.6749442368798871  0.5302248325724446  0.1186434877020514  1.0000
  O   O5        1.0  0.5219688175109028  0.18320176675602476  0.3116762064443475  1.0000
  O   O6        1.0  0.40964512461527014  0.5907723956954853  0.7907389881455437  1.0000
  Si  Si2       1.0  0.16402795423177582  0.02640322113910542  0.1105631145834325  1.0000
  O   O7        1.0  0.054901064848265894  0.5858277313332212  0.4431618824992254  1.0000
  O   O8        1.0  0.009489736131088113  0.06554455987053623  0.3142789286810601  1.0000
