data_image0
_chemical_formula_structural       TiCaSiTiOSiCaSi
_chemical_formula_sum              "Ti2 Ca2 Si3 O1"
_cell_length_a       4.072582724643227
_cell_length_b       4.075845877996882
_cell_length_c       8.514654159545898
_cell_angle_alpha    89.98396521976723
_cell_angle_beta     90.00217450455624
_cell_angle_gamma    90.0370494533641

_space_group_name_H-M_alt    "P 1"
_space_group_IT_number       1

loop_
  _space_group_symop_operation_xyz
  'x, y, z'

loop_
  _atom_site_type_symbol
  _atom_site_label
  _atom_site_symmetry_multiplicity
  _atom_site_fract_x
  _atom_site_fract_y
  _atom_site_fract_z
  _atom_site_occupancy
  Ti  Ti1       1.0  0.020469398243477738  0.24492037884384002  0.7333240774569508  1.0000
  Ca  Ca1       1.0  0.5203913121272269  0.2450461189183486  0.42049197065147864  1.0000
  Si  Si1       1.0  0.020035546576490506  0.7449786936169093  0.2333268919491048  1.0000
  Ti  Ti2       1.0  0.5204425275661703  0.7449062527620245  0.733349278326312  1.0000
  O   O1        1.0  0.5204396951389416  0.2449012484630371  0.7333417571421544  1.0000
  Si  Si2       1.0  0.02047173153368479  0.7448357939515619  0.937646349653905  1.0000
  Ca  Ca2       1.0  0.5203779371772518  0.24480500425366847  0.04625347179895811  1.0000
  Si  Si3       1.0  0.020482360629422106  0.7449647051023448  0.5290162931385405  1.0000
