data_image0
_chemical_formula_structural       CaOCaTiO2Si2OTiO6
_chemical_formula_sum              "Ca2 O10 Ti2 Si2"
_cell_length_a       5.50259468573856
_cell_length_b       5.4985031146993615
_cell_length_c       7.120081901550292
_cell_angle_alpha    104.25154146256989
_cell_angle_beta     104.23458138696671
_cell_angle_gamma    105.66880295188433

_space_group_name_H-M_alt    "P 1"
_space_group_IT_number       1

loop_
  _space_group_symop_operation_xyz
  'x, y, z'

loop_
  _atom_site_type_symbol
  _atom_site_label
  _atom_site_symmetry_multiplicity
  _atom_site_fract_x
  _atom_site_fract_y
  _atom_site_fract_z
  _atom_site_occupancy
  Ca  Ca1       1.0  0.7131866053842393  0.7682585421374047  0.5056185940604149  1.0000
  O   O1        1.0  0.3556743503337125  0.32746872110798314  0.37227489426850785  1.0000
  Ca  Ca2       1.0  0.3703928310424949  0.11131714641177345  0.005667446188749972  1.0000
  Ti  Ti1       1.0  0.04183113564528753  0.4398568421814925  0.25577691219453014  1.0000
  O   O2        1.0  0.7913114882012531  0.06226815795486132  0.16386602157355387  1.0000
  O   O3        1.0  0.1107063191397948  0.3711229500612966  0.0057641809762478515  1.0000
  Si  Si1       1.0  0.361198970969256  0.12070534078735592  0.5058361144781751  1.0000
  Si  Si2       1.0  0.7225671529221639  0.7590133159935891  0.005661558853321545  1.0000
  O   O4        1.0  0.9295276765870801  0.753650189578812  0.8723878602841117  1.0000
  Ti  Ti2       1.0  0.0418557388632925  0.43979786232944224  0.7557943072435364  1.0000
  O   O5        1.0  0.41958884664389506  0.6902039468962179  0.84739484247513  1.0000
  O   O6        1.0  0.7280477540355351  0.5523574050492547  0.13931823489379871  1.0000
  O   O7        1.0  0.9729630570873081  0.508550118901244  0.5057258516822046  1.0000
  O   O8        1.0  0.664118509961977  0.1894086360922791  0.664081476989211  1.0000
  O   O9        1.0  0.29238255051038115  0.8174644996634624  0.3475645574349372  1.0000
  O   O10       1.0  0.15420412465003186  0.12600179751621482  0.6391214688644442  1.0000
