data_image0
_chemical_formula_structural       O4SiCa2TiOTiO2SiO3
_chemical_formula_sum              "O10 Si2 Ca2 Ti2"
_cell_length_a       5.509837893600458
_cell_length_b       5.506812183784407
_cell_length_c       7.115387439727783
_cell_angle_alpha    104.24966917062325
_cell_angle_beta     104.25539194605601
_cell_angle_gamma    105.72281881518764

_space_group_name_H-M_alt    "P 1"
_space_group_IT_number       1

loop_
  _space_group_symop_operation_xyz
  'x, y, z'

loop_
  _atom_site_type_symbol
  _atom_site_label
  _atom_site_symmetry_multiplicity
  _atom_site_fract_x
  _atom_site_fract_y
  _atom_site_fract_z
  _atom_site_occupancy
  O   O1        1.0  0.5591038146315788  0.07446960333582048  0.8082427674122385  1.0000
  O   O2        1.0  0.19425673274452665  0.010949905656763452  0.33199906860434997  1.0000
  O   O3        1.0  0.6850817771491063  0.9484283247826245  0.308237872861267  1.0000
  O   O4        1.0  0.9310051454863609  0.446462085473322  0.12371907898944204  1.0000
  Si  Si1       1.0  0.9882400287186516  0.017181360442918115  0.4659203378679131  1.0000
  Ca  Ca1       1.0  0.6359551621092997  0.36963375998212816  0.4661807764021566  1.0000
  Ca  Ca2       1.0  0.9801219082927664  0.02524720852152351  0.9660949314026367  1.0000
  Ti  Ti1       1.0  0.308017718339058  0.6974239758314021  0.7159741125427526  1.0000
  O   O5        1.0  0.3764769643121837  0.6289355055486837  0.46597800596649774  1.0000
  Ti  Ti2       1.0  0.30808550329214585  0.6974074637702632  0.215975940832106  1.0000
  O   O6        1.0  0.05711573613197568  0.32044181855732407  0.6237047613022969  1.0000
  O   O7        1.0  0.42188556226001045  0.3838786278901068  0.09998229708346558  1.0000
  Si  Si2       1.0  0.6278690962737161  0.37766911494776595  0.9660572968605556  1.0000
  O   O8        1.0  0.6215729441240446  0.5836921543799147  0.83203320648512  1.0000
  O   O9        1.0  0.2396068391390607  0.7659627266197087  0.9659972666582314  1.0000
  O   O10       1.0  0.9945092081948111  0.8111599968133864  0.5999769843810602  1.0000
