data_image0
_chemical_formula_structural       CaSiO2TiSiO4
_chemical_formula_sum              "Ca1 Si2 O6 Ti1"
_cell_length_a       5.228693846741872
_cell_length_b       5.233681957868975
_cell_length_c       6.141841411590576
_cell_angle_alpha    64.80526241614145
_cell_angle_beta     64.78484125981086
_cell_angle_gamma    59.83338132163493

_space_group_name_H-M_alt    "P 1"
_space_group_IT_number       1

loop_
  _space_group_symop_operation_xyz
  'x, y, z'

loop_
  _atom_site_type_symbol
  _atom_site_label
  _atom_site_symmetry_multiplicity
  _atom_site_fract_x
  _atom_site_fract_y
  _atom_site_fract_z
  _atom_site_occupancy
  Ca  Ca1       1.0  0.6646755909537072  0.9565641617628274  0.21900544737323743  1.0000
  Si  Si1       1.0  0.440592574273237  0.7324033295423404  0.891038299053312  1.0000
  O   O1        1.0  0.9261024936222273  0.49283082503601905  0.4936229907939241  1.0000
  O   O2        1.0  0.2017449308820812  0.8834830980825258  0.4937802691171059  1.0000
  Ti  Ti1       1.0  0.1647099142444328  0.4565970850318795  0.7189046900540393  1.0000
  Si  Si2       1.0  0.8887202215538317  0.18068367652745088  0.5470832864429629  1.0000
  O   O3        1.0  0.5923394220033849  0.2183094468969976  0.4932792478278825  1.0000
  O   O4        1.0  0.40329790706031904  0.420314108303143  0.9442878874627977  1.0000
  O   O5        1.0  0.12761703755303627  0.029683824852937378  0.9441184713467138  1.0000
  O   O6        1.0  0.7370480385397781  0.6948809792782964  0.9446179809397266  1.0000
