data_image0
_chemical_formula_structural       SiCaTi3CaTiSiOSiOTi
_chemical_formula_sum              "Si3 Ca2 Ti5 O2"
_cell_length_a       4.0599543962210785
_cell_length_b       4.057904407538538
_cell_length_c       12.187698364257812
_cell_angle_alpha    99.53238493012164
_cell_angle_beta     99.54950847202072
_cell_angle_gamma    89.9832616809788

_space_group_name_H-M_alt    "P 1"
_space_group_IT_number       1

loop_
  _space_group_symop_operation_xyz
  'x, y, z'

loop_
  _atom_site_type_symbol
  _atom_site_label
  _atom_site_symmetry_multiplicity
  _atom_site_fract_x
  _atom_site_fract_y
  _atom_site_fract_z
  _atom_site_occupancy
  Si  Si1       1.0  0.11736240409189468  0.9417206497844971  0.8077341566124139  1.0000
  Ca  Ca1       1.0  0.23621953186650527  0.060637903655162195  0.043762129057622105  1.0000
  Ti  Ti1       1.0  0.34250257979722065  0.6668839226441703  0.25690285119341066  1.0000
  Ti  Ti2       1.0  0.6362937715552487  0.46068573836998034  0.8450594203752926  1.0000
  Ti  Ti3       1.0  0.8425762589296542  0.16681589918672035  0.2569381330557447  1.0000
  Ca  Ca2       1.0  0.4430762766579643  0.2673763454939879  0.45825200394339544  1.0000
  Ti  Ti4       1.0  0.04646566475469545  0.37102144457682457  0.6654645289099198  1.0000
  Si  Si2       1.0  0.7664636225075508  0.5908490835406581  0.10440811669293713  1.0000
  O   O1        1.0  0.5400332869517489  0.36443816898762327  0.652461478778256  1.0000
  Si  Si3       1.0  0.9435539942785016  0.7678663510922639  0.4591956351038544  1.0000
  O   O2        1.0  0.34394857738209444  0.1682671850813866  0.25970219103269415  1.0000
  Ti  Ti5       1.0  0.5466032375855588  0.8708773035262064  0.6655259959184814  1.0000
