data_image0
_chemical_formula_structural       CaSiO2
_chemical_formula_sum              "Ca1 Si1 O2"
_cell_length_a       3.3469487142335415
_cell_length_b       3.177806638598168
_cell_length_c       4.857944488525391
_cell_angle_alpha    90.10432680551688
_cell_angle_beta     90.21450459571338
_cell_angle_gamma    90.17670634073487

_space_group_name_H-M_alt    "P 1"
_space_group_IT_number       1

loop_
  _space_group_symop_operation_xyz
  'x, y, z'

loop_
  _atom_site_type_symbol
  _atom_site_label
  _atom_site_symmetry_multiplicity
  _atom_site_fract_x
  _atom_site_fract_y
  _atom_site_fract_z
  _atom_site_occupancy
  Ca  Ca1       1.0  0.9942247996524635  0.6030587343543877  0.746122147716434  1.0000
  Si  Si1       1.0  0.49273271038342725  0.024988023689915213  0.23345956212321672  1.0000
  O   O1        1.0  0.49414315452150365  0.10095588062263058  0.5870565097561012  1.0000
  O   O2        1.0  0.9923882834035694  0.2042448865268933  0.1667227180007378  1.0000
