data_image0
_chemical_formula_structural       OCaOSiO4SiTiO2
_chemical_formula_sum              "O8 Ca1 Si2 Ti1"
_cell_length_a       5.636281697778691
_cell_length_b       5.637861614049494
_cell_length_c       5.65268087387085
_cell_angle_alpha    106.50054325722536
_cell_angle_beta     106.55995234190988
_cell_angle_gamma    115.25970114201753

_space_group_name_H-M_alt    "P 1"
_space_group_IT_number       1

loop_
  _space_group_symop_operation_xyz
  'x, y, z'

loop_
  _atom_site_type_symbol
  _atom_site_label
  _atom_site_symmetry_multiplicity
  _atom_site_fract_x
  _atom_site_fract_y
  _atom_site_fract_z
  _atom_site_occupancy
  O   O1        1.0  0.6118195013711563  0.09609589842884579  0.5153780314140864  1.0000
  Ca  Ca1       1.0  0.6254365000097907  0.48875865363202775  0.7875870429310229  1.0000
  O   O2        1.0  0.08464204333822314  0.6407556652847555  0.0659882032635404  1.0000
  Si  Si1       1.0  0.39910260631517264  0.7401674261791376  0.308934929738525  1.0000
  O   O3        1.0  0.9932420841059063  0.03462453676963443  0.029785054517596755  1.0000
  O   O4        1.0  0.3064171233164124  0.5278295862918359  0.45190251984731616  1.0000
  O   O5        1.0  0.5523656432328864  0.17260629131915764  0.05890709250462758  1.0000
  O   O6        1.0  0.6191550321927132  0.7371141838989089  0.17410898278538156  1.0000
  Si  Si2       1.0  0.19323091570153428  0.009140585554818559  0.8704794893614912  1.0000
  Ti  Ti1       1.0  0.8924055118857269  0.1717283534093414  0.3456028896186569  1.0000
  O   O7        1.0  0.023303679207538064  0.6451996257172428  0.6692892982335218  1.0000
  O   O8        1.0  0.13783077916879338  0.14139455471249865  0.6454758810551556  1.0000
