data_image0
_chemical_formula_structural       OTiO2CaSi2O5
_chemical_formula_sum              "O8 Ti1 Ca1 Si2"
_cell_length_a       5.334142612033158
_cell_length_b       5.335912228189082
_cell_length_c       6.301046848297119
_cell_angle_alpha    90.00082895735368
_cell_angle_beta     89.96707416357374
_cell_angle_gamma    119.95301454597364

_space_group_name_H-M_alt    "P 1"
_space_group_IT_number       1

loop_
  _space_group_symop_operation_xyz
  'x, y, z'

loop_
  _atom_site_type_symbol
  _atom_site_label
  _atom_site_symmetry_multiplicity
  _atom_site_fract_x
  _atom_site_fract_y
  _atom_site_fract_z
  _atom_site_occupancy
  O   O1        1.0  0.7756367148465688  0.4809593166953145  0.06817647963184476  1.0000
  Ti  Ti1       1.0  0.26856538934886803  0.46683098868670103  0.638713599219277  1.0000
  O   O2        1.0  0.6015151064333005  0.134600190511859  0.3941541092766496  1.0000
  O   O3        1.0  0.2689331019695939  0.4671742913327621  0.35302850319972573  1.0000
  Ca  Ca1       1.0  0.9351572724672821  0.8000275692818254  0.3903232313782408  1.0000
  Si  Si1       1.0  0.9351113119307761  0.8003851870110084  0.8981133167189664  1.0000
  Si  Si2       1.0  0.6017820432567855  0.13385496934208  0.13096056737800785  1.0000
  O   O4        1.0  0.08353557555603545  0.09761594194488707  0.725245413380666  1.0000
  O   O5        1.0  0.7754734752804092  0.9600320563380215  0.06851135467431656  1.0000
  O   O6        1.0  0.25469296508048395  0.960103781239482  0.06809370356516757  1.0000
  O   O7        1.0  0.6376228629583505  0.6516106736595955  0.7255620850780448  1.0000
  O   O8        1.0  0.08397157865227656  0.6517546313081322  0.7252183313686066  1.0000
