data_image0
_chemical_formula_structural       TiSiOSiO7
_chemical_formula_sum              "Ti1 Si2 O8"
_cell_length_a       5.512299968597419
_cell_length_b       5.495525889991784
_cell_length_c       6.504841804504394
_cell_angle_alpha    89.56634012073593
_cell_angle_beta     89.71912462512067
_cell_angle_gamma    119.89396106304999

_space_group_name_H-M_alt    "P 1"
_space_group_IT_number       1

loop_
  _space_group_symop_operation_xyz
  'x, y, z'

loop_
  _atom_site_type_symbol
  _atom_site_label
  _atom_site_symmetry_multiplicity
  _atom_site_fract_x
  _atom_site_fract_y
  _atom_site_fract_z
  _atom_site_occupancy
  Ti  Ti1       1.0  0.24265365145327508  0.7045483247349591  0.8695165766117414  1.0000
  Si  Si1       1.0  0.5738198181067738  0.36825663199838765  0.11304156133070785  1.0000
  O   O1        1.0  0.5736308015343312  0.3677629578560343  0.3690709483036126  1.0000
  Si  Si2       1.0  0.9113549632604324  0.04088704826536779  0.6259489812494773  1.0000
  O   O2        1.0  0.9010725905665165  0.5328027742625135  0.03658937890597437  1.0000
  O   O3        1.0  0.07372406974379327  0.36618413131431604  0.7035357050733021  1.0000
  O   O4        1.0  0.41139417983108345  0.04294769167244942  0.03548364148159787  1.0000
  O   O5        1.0  0.07394850564217355  0.8764422437757782  0.7029745236660946  1.0000
  O   O6        1.0  0.9118517324436041  0.04129810096904491  0.3699232995004793  1.0000
  O   O7        1.0  0.4112577843512595  0.5327561908954669  0.03609543473970832  1.0000
  O   O8        1.0  0.5840866124604823  0.8763449999698129  0.7023576309072082  1.0000
