data_image0
_chemical_formula_structural       SiOCaTiO2CaO3
_chemical_formula_sum              "Si1 O6 Ca2 Ti1"
_cell_length_a       5.261086030071966
_cell_length_b       5.263790842925039
_cell_length_c       5.286006450653076
_cell_angle_alpha    119.91500843582465
_cell_angle_beta     119.8924295518035
_cell_angle_gamma    90.01247286459618

_space_group_name_H-M_alt    "P 1"
_space_group_IT_number       1

loop_
  _space_group_symop_operation_xyz
  'x, y, z'

loop_
  _atom_site_type_symbol
  _atom_site_label
  _atom_site_symmetry_multiplicity
  _atom_site_fract_x
  _atom_site_fract_y
  _atom_site_fract_z
  _atom_site_occupancy
  Si  Si1       1.0  0.12010092053672387  0.56194266032718  0.5017020947629982  1.0000
  O   O1        1.0  0.8427114477548153  0.7619496302538432  0.5022334571834015  1.0000
  Ca  Ca1       1.0  0.870048449323718  0.8121569522185327  0.0016627854731478403  1.0000
  Ti  Ti1       1.0  0.6200591167852587  0.061808785493438004  0.501716879617238  1.0000
  O   O2        1.0  0.9200635889377994  0.28408118490965956  0.5013667688357849  1.0000
  O   O3        1.0  0.359532982351123  0.8009623972022827  0.9806128524359788  1.0000
  Ca  Ca2       1.0  0.3701225555330018  0.31157298649748477  0.0018368482435064586  1.0000
  O   O4        1.0  0.39748128815402295  0.36186243726274864  0.5012036261071863  1.0000
  O   O5        1.0  0.3199678266262408  0.8396358073469451  0.501898943582632  1.0000
  O   O6        1.0  0.8805228210365643  0.3227230797012486  0.022755567327821566  1.0000
