data_image0
_chemical_formula_structural       TiOTiSiO4SiO3
_chemical_formula_sum              "Ti2 O8 Si2"
_cell_length_a       5.549961607958374
_cell_length_b       5.557904531427569
_cell_length_c       9.52997875213623
_cell_angle_alpha    74.74363360177894
_cell_angle_beta     74.74717863193344
_cell_angle_gamma    61.19364884129954

_space_group_name_H-M_alt    "P 1"
_space_group_IT_number       1

loop_
  _space_group_symop_operation_xyz
  'x, y, z'

loop_
  _atom_site_type_symbol
  _atom_site_label
  _atom_site_symmetry_multiplicity
  _atom_site_fract_x
  _atom_site_fract_y
  _atom_site_fract_z
  _atom_site_occupancy
  Ti  Ti1       1.0  0.10493197511320322  0.39728006596953463  0.5152521141108068  1.0000
  O   O1        1.0  0.4350571442377208  0.19816522880777626  0.5794216180662516  1.0000
  Ti  Ti2       1.0  0.23680054526052766  0.5290711608806505  0.11810358723056572  1.0000
  Si  Si1       1.0  0.6115962397455663  0.9045639357930209  0.993749014363869  1.0000
  O   O2        1.0  0.9076870604210147  0.19987440689841163  0.5816679268448923  1.0000
  O   O3        1.0  0.9075695498536751  0.7265981500731564  0.5800414886763863  1.0000
  O   O4        1.0  0.906842847792201  0.726793070646838  0.05370328644815455  1.0000
  O   O5        1.0  0.17061170556672461  0.4634974444998406  0.31669390361664324  1.0000
  Si  Si2       1.0  0.7300660873008411  0.021791806292781258  0.6396668426844585  1.0000
  O   O6        1.0  0.43530463116546625  0.19940313207757457  0.05374324335064417  1.0000
  O   O7        1.0  0.43308482343495364  0.7273763828781681  0.051737142177377134  1.0000
  O   O8        1.0  0.6704646942006829  0.9634622595411866  0.8166968423589573  1.0000
