data_image0
_chemical_formula_structural       SiCaO2TiO2TiSiO4CaSiO3
_chemical_formula_sum              "Si3 Ca2 O11 Ti2"
_cell_length_a       5.154017994814091
_cell_length_b       6.902832659051195
_cell_length_c       8.322338104248047
_cell_angle_alpha    73.20905368183863
_cell_angle_beta     67.8256014502552
_cell_angle_gamma    79.8937879947992

_space_group_name_H-M_alt    "P 1"
_space_group_IT_number       1

loop_
  _space_group_symop_operation_xyz
  'x, y, z'

loop_
  _atom_site_type_symbol
  _atom_site_label
  _atom_site_symmetry_multiplicity
  _atom_site_fract_x
  _atom_site_fract_y
  _atom_site_fract_z
  _atom_site_occupancy
  Si  Si1       1.0  0.6756862935454628  0.9488127772414516  0.796789760242336  1.0000
  Ca  Ca1       1.0  0.23985601655972588  0.2767505750610319  0.651328946649558  1.0000
  O   O1        1.0  0.42805815931598024  0.054344871881733245  0.9465925543965628  1.0000
  O   O2        1.0  0.4702102666617471  0.8726297332484685  0.712923283304713  1.0000
  Ti  Ti1       1.0  0.9486623607442897  0.24272397263234166  0.37545400099774107  1.0000
  O   O3        1.0  0.3645279413198178  0.1843259934869428  0.22851932195460853  1.0000
  O   O4        1.0  0.959582157199342  0.9966574548941007  0.2708266628960809  1.0000
  Ti  Ti2       1.0  0.37095120407117205  0.4845288754905921  0.23138824389097024  1.0000
  Si  Si2       1.0  0.3013135568318697  0.9927275398796732  0.17123341835310227  1.0000
  O   O5        1.0  0.8991117137423928  0.7790844641820986  0.8644837360942553  1.0000
  O   O6        1.0  0.8602940607627161  0.12370869160111041  0.6403122702091586  1.0000
  O   O7        1.0  0.04713931351768193  0.4778526593935724  0.4397888038610004  1.0000
  O   O8        1.0  0.32709296973793917  0.5467810715797525  0.6955138455743575  1.0000
  Ca  Ca2       1.0  0.6821042180775414  0.7117246368400036  0.42971008305551955  1.0000
  Si  Si3       1.0  0.23245635775032536  0.6883912841442743  0.8319198819661194  1.0000
  O   O9        1.0  0.6088174223601066  0.3813163223640119  0.37442520085584496  1.0000
  O   O10       1.0  0.26823302635099416  0.602553172352695  0.022933161333297702  1.0000
  O   O11       1.0  0.45291729355026705  0.7744135424692145  0.2367369526703523  1.0000
