data_image0
_chemical_formula_structural       OSiOTiSiCa
_chemical_formula_sum              "O2 Si2 Ti1 Ca1"
_cell_length_a       3.1676190328935077
_cell_length_b       3.0042378696715897
_cell_length_c       9.13736343383789
_cell_angle_alpha    96.07333171862456
_cell_angle_beta     99.47588590092303
_cell_angle_gamma    89.94553859995027

_space_group_name_H-M_alt    "P 1"
_space_group_IT_number       1

loop_
  _space_group_symop_operation_xyz
  'x, y, z'

loop_
  _atom_site_type_symbol
  _atom_site_label
  _atom_site_symmetry_multiplicity
  _atom_site_fract_x
  _atom_site_fract_y
  _atom_site_fract_z
  _atom_site_occupancy
  O   O1        1.0  0.32417528190897854  0.29920575629252194  0.14199293373678867  1.0000
  Si  Si1       1.0  0.5337787175304902  0.7914533982201827  0.5400351048757686  1.0000
  O   O2        1.0  0.18576421486196373  0.8559655492212845  0.8567155963031025  1.0000
  Ti  Ti1       1.0  0.11550765523000352  0.3192602509966551  0.7110511687534425  1.0000
  Si  Si2       1.0  0.41328711997384926  0.2622894525570794  0.33029944802500183  1.0000
  Ca  Ca1       1.0  0.773476172716359  0.7728431608283837  0.03799233506184355  1.0000
