data_image0
_chemical_formula_structural       OSi2O3SiOCaTiO2
_chemical_formula_sum              "O7 Si3 Ca1 Ti1"
_cell_length_a       5.108634409112846
_cell_length_b       5.111570854556235
_cell_length_c       8.46345043182373
_cell_angle_alpha    72.4477876224087
_cell_angle_beta     72.50856384626906
_cell_angle_gamma    59.93317491685858

_space_group_name_H-M_alt    "P 1"
_space_group_IT_number       1

loop_
  _space_group_symop_operation_xyz
  'x, y, z'

loop_
  _atom_site_type_symbol
  _atom_site_label
  _atom_site_symmetry_multiplicity
  _atom_site_fract_x
  _atom_site_fract_y
  _atom_site_fract_z
  _atom_site_occupancy
  O   O1        1.0  0.168878414678172  0.8834739894350819  0.5408053597027933  1.0000
  Si  Si1       1.0  0.28197672191009887  0.5911239529222574  0.424259546659068  1.0000
  Si  Si2       1.0  0.7448013699620873  0.05332936019342517  0.0371328102925855  1.0000
  O   O2        1.0  0.987111488164041  0.4771476850556614  0.5407797647907333  1.0000
  O   O3        1.0  0.0652519014442683  0.7761275856567441  0.9299003648016807  1.0000
  O   O4        1.0  0.46784176590171617  0.11663891745652029  0.929720995218824  1.0000
  Si  Si3       1.0  0.9348594281738672  0.24351454261713873  0.46688727186986  1.0000
  O   O5        1.0  0.5751250780018011  0.29573333127954626  0.540672455143919  1.0000
  Ca  Ca1       1.0  0.5113392511543035  0.8203215176940207  0.7363616124604683  1.0000
  Ti  Ti1       1.0  0.0804523055582662  0.3889727135439085  0.029675172316413482  1.0000
  O   O6        1.0  0.003385318993791773  0.312249488410944  0.2605543394006036  1.0000
  O   O7        1.0  0.8082909630206996  0.3736485631154056  0.9295560943326244  1.0000
