data_image0
_chemical_formula_structural       CaSiOTiOCaOTiSiO7
_chemical_formula_sum              "Ca2 Si2 O10 Ti2"
_cell_length_a       5.507272813846823
_cell_length_b       5.503072115252673
_cell_length_c       7.122066974639893
_cell_angle_alpha    104.02979189265099
_cell_angle_beta     104.11722492709904
_cell_angle_gamma    105.77608510941624

_space_group_name_H-M_alt    "P 1"
_space_group_IT_number       1

loop_
  _space_group_symop_operation_xyz
  'x, y, z'

loop_
  _atom_site_type_symbol
  _atom_site_label
  _atom_site_symmetry_multiplicity
  _atom_site_fract_x
  _atom_site_fract_y
  _atom_site_fract_z
  _atom_site_occupancy
  Ca  Ca1       1.0  0.34222766096263785  0.08168014339337339  0.36617998223127446  1.0000
  Si  Si1       1.0  0.33472644346936126  0.08944325526905605  0.866077907458178  1.0000
  O   O1        1.0  0.32791948751150246  0.2955463146838862  0.7315662791931316  1.0000
  Ti  Ti1       1.0  0.01458663325907277  0.4094596017429649  0.6159112990401352  1.0000
  O   O2        1.0  0.9463632831033392  0.47765068412927497  0.8657814950995435  1.0000
  Ca  Ca2       1.0  0.6869838358261955  0.7373364088661393  0.8655377430851918  1.0000
  O   O3        1.0  0.3915333691430529  0.6608749080831924  0.2086929727263941  1.0000
  Ti  Ti2       1.0  0.014627240679366837  0.4094668890862171  0.11592819188055892  1.0000
  Si  Si2       1.0  0.6944908498140545  0.7294112821573948  0.3656229991051993  1.0000
  O   O4        1.0  0.7012573766243266  0.5233979118423925  0.500166055172429  1.0000
  O   O5        1.0  0.08282337257789442  0.341406045448531  0.36593755690677304  1.0000
  O   O6        1.0  0.7634672230465182  0.03221172333779887  0.5229828527253527  1.0000
  O   O7        1.0  0.900065403744424  0.7226304478444386  0.23102014669887547  1.0000
  O   O8        1.0  0.6376574191425807  0.15793437075122194  0.022953140669470903  1.0000
  O   O9        1.0  0.12913207772668123  0.09627667300951685  0.0006609956019287822  1.0000
  O   O10       1.0  0.2657224422817855  0.7867088296905367  0.7086424026248145  1.0000
