data_image0
_chemical_formula_structural       OSiTiCaO4SiO3
_chemical_formula_sum              "O8 Si2 Ti1 Ca1"
_cell_length_a       5.339328954559808
_cell_length_b       5.337364280167703
_cell_length_c       6.510025024414062
_cell_angle_alpha    89.91209113612646
_cell_angle_beta     90.0374797547204
_cell_angle_gamma    119.98021068824883

_space_group_name_H-M_alt    "P 1"
_space_group_IT_number       1

loop_
  _space_group_symop_operation_xyz
  'x, y, z'

loop_
  _atom_site_type_symbol
  _atom_site_label
  _atom_site_symmetry_multiplicity
  _atom_site_fract_x
  _atom_site_fract_y
  _atom_site_fract_z
  _atom_site_occupancy
  O   O1        1.0  0.8756104853776191  0.2979564636557548  0.9917543649081644  1.0000
  Si  Si1       1.0  0.8760652393294989  0.2979274560849159  0.737852153969052  1.0000
  Ti  Ti1       1.0  0.5428264414895335  0.6314320428666927  0.47941558949350827  1.0000
  Ca  Ca1       1.0  0.5427665931367699  0.6312123944071745  0.979422121596302  1.0000
  O   O2        1.0  0.20933761894985659  0.9642660805955757  0.9670568643505888  1.0000
  O   O3        1.0  0.37801720378972087  0.7961017279896406  0.2922848619715004  1.0000
  O   O4        1.0  0.21310469886975242  0.46656392105791844  0.6666604188395941  1.0000
  O   O5        1.0  0.37818429622092864  0.30182608296116703  0.2921522201301953  1.0000
  Si  Si2       1.0  0.2094848999564483  0.9647994825177926  0.22095811390310394  1.0000
  O   O6        1.0  0.7073670658994147  0.960954736509049  0.6665266765223186  1.0000
  O   O7        1.0  0.8725000842691762  0.7962236427130435  0.2923200547552272  1.0000
  O   O8        1.0  0.7075246789665984  0.4666403029801325  0.6665660794065257  1.0000
