data_image0
_chemical_formula_structural       SiO3CaOSiOTiO3
_chemical_formula_sum              "Si2 O8 Ca1 Ti1"
_cell_length_a       5.656277689119983
_cell_length_b       5.656170141132962
_cell_length_c       5.660268306732178
_cell_angle_alpha    106.5066902101251
_cell_angle_beta     106.46843533514402
_cell_angle_gamma    115.51497413074306

_space_group_name_H-M_alt    "P 1"
_space_group_IT_number       1

loop_
  _space_group_symop_operation_xyz
  'x, y, z'

loop_
  _atom_site_type_symbol
  _atom_site_label
  _atom_site_symmetry_multiplicity
  _atom_site_fract_x
  _atom_site_fract_y
  _atom_site_fract_z
  _atom_site_occupancy
  Si  Si1       1.0  0.7711629426668904  0.4215858546971882  0.03168265848428109  1.0000
  O   O1        1.0  0.6377827423461971  0.4774390456303116  0.2556966922598765  1.0000
  O   O2        1.0  0.6072756981916666  0.06306633683181463  0.8439872586165698  1.0000
  O   O3        1.0  0.13626838165893396  0.5304946855178376  0.8336786436031931  1.0000
  Ca  Ca1       1.0  0.29065741750544344  0.9894950295728235  0.1143035489897354  1.0000
  O   O4        1.0  0.25245543531893383  0.30910824157272226  0.45100848663049015  1.0000
  Si  Si2       1.0  0.039446620727386784  0.21664980964658234  0.5931711612086288  1.0000
  O   O5        1.0  0.7454791780008001  0.6204467567240929  0.8718473884218659  1.0000
  Ti  Ti1       1.0  0.607244943972171  0.7222388822026049  0.5525147601029423  1.0000
  O   O6        1.0  0.13456405178696199  0.5925691463127069  0.2341571435153486  1.0000
  O   O7        1.0  0.041618923652641845  0.9973458127707626  0.7284148555230361  1.0000
  O   O8        1.0  0.6833558378694541  0.002200873351274725  0.385839652286719  1.0000
