data_image0
_chemical_formula_structural       Ca2SiO2SiO5Ti
_chemical_formula_sum              "Ca2 Si2 O7 Ti1"
_cell_length_a       5.241819210723046
_cell_length_b       5.117101699104087
_cell_length_c       6.79545021057129
_cell_angle_alpha    82.06318642756608
_cell_angle_beta     85.66385698252182
_cell_angle_gamma    86.91186255819794

_space_group_name_H-M_alt    "P 1"
_space_group_IT_number       1

loop_
  _space_group_symop_operation_xyz
  'x, y, z'

loop_
  _atom_site_type_symbol
  _atom_site_label
  _atom_site_symmetry_multiplicity
  _atom_site_fract_x
  _atom_site_fract_y
  _atom_site_fract_z
  _atom_site_occupancy
  Ca  Ca1       1.0  0.8994881028537812  0.9668713545249842  0.28838101256736903  1.0000
  Ca  Ca2       1.0  0.96962638804794  0.3896633470165071  0.7899294682491415  1.0000
  Si  Si1       1.0  0.4037874353649285  0.020329265597550886  0.0009283239533289501  1.0000
  O   O1        1.0  0.3065904504797806  0.9795945752553068  0.7795609943497731  1.0000
  O   O2        1.0  0.7551651838532432  0.7392153379615876  0.6216195383388899  1.0000
  Si  Si2       1.0  0.46037711332373005  0.8381465640474097  0.5954298210194883  1.0000
  O   O3        1.0  0.4684093922341132  0.0836991818719781  0.41030174439896977  1.0000
  O   O4        1.0  0.28850840717214976  0.5928124449205496  0.5555075029344846  1.0000
  O   O5        1.0  0.2167380190727253  0.2726991717976557  0.06167706386303059  1.0000
  O   O6        1.0  0.7054953685434944  0.0741419476670206  0.9925169367662702  1.0000
  O   O7        1.0  0.2883027531070466  0.7681474535548894  0.14884720717738995  1.0000
  Ti  Ti1       1.0  0.3235789943448603  0.4275908039209308  0.30338674051372905  1.0000
