data_image0
_chemical_formula_structural       SiTi2OSiOCaO6Ca
_chemical_formula_sum              "Si2 Ti2 O8 Ca2"
_cell_length_a       5.458919089910816
_cell_length_b       5.471202893090242
_cell_length_c       6.458642959594727
_cell_angle_alpha    89.99283763604782
_cell_angle_beta     89.99292642852586
_cell_angle_gamma    112.6959488084315

_space_group_name_H-M_alt    "P 1"
_space_group_IT_number       1

loop_
  _space_group_symop_operation_xyz
  'x, y, z'

loop_
  _atom_site_type_symbol
  _atom_site_label
  _atom_site_symmetry_multiplicity
  _atom_site_fract_x
  _atom_site_fract_y
  _atom_site_fract_z
  _atom_site_occupancy
  Si  Si1       1.0  0.27268533291958874  0.07702012790645503  0.35780707314750765  1.0000
  Ti  Ti1       1.0  0.5786071055580302  0.7719267425660193  0.3574632124512023  1.0000
  Ti  Ti2       1.0  0.24300668780733228  0.10626211895121501  0.8579235033225471  1.0000
  O   O1        1.0  0.17013691237423356  0.17999931985630604  0.14841296100418078  1.0000
  Si  Si2       1.0  0.5488536423546446  0.8010800164477042  0.8575424478896767  1.0000
  O   O2        1.0  0.6024818263343058  0.17258371718618873  0.357662686838989  1.0000
  Ca  Ca1       1.0  0.9107583772060391  0.43901276824995594  0.6076313661142211  1.0000
  O   O3        1.0  0.6515228298318582  0.6982601142631287  0.06696309208921693  1.0000
  O   O4        1.0  0.6447731821991444  0.13019180059486266  0.8576736859651878  1.0000
  O   O5        1.0  0.6513931336283597  0.698397352803826  0.648021188772851  1.0000
  O   O6        1.0  0.17015993101233917  0.17967638385130005  0.5673641625110224  1.0000
  O   O7        1.0  0.2190548483672534  0.7055419255432469  0.8576321383576189  1.0000
  O   O8        1.0  0.17675309641053955  0.7479214921671707  0.3576484165339678  1.0000
  Ca  Ca2       1.0  0.9107956926223371  0.4390503792645462  0.10763373239720622  1.0000
