data_image0
_chemical_formula_structural       CaOSiCaO3TiSiO2SiTiO2
_chemical_formula_sum              "Ca2 O8 Si3 Ti2"
_cell_length_a       5.707380578326998
_cell_length_b       7.416504440999954
_cell_length_c       6.632541656494141
_cell_angle_alpha    108.16288879493545
_cell_angle_beta     97.3177299738798
_cell_angle_gamma    115.20135803902807

_space_group_name_H-M_alt    "P 1"
_space_group_IT_number       1

loop_
  _space_group_symop_operation_xyz
  'x, y, z'

loop_
  _atom_site_type_symbol
  _atom_site_label
  _atom_site_symmetry_multiplicity
  _atom_site_fract_x
  _atom_site_fract_y
  _atom_site_fract_z
  _atom_site_occupancy
  Ca  Ca1       1.0  0.5500415512239386  0.9081185237727168  0.9238470364543298  1.0000
  O   O1        1.0  0.16041842056162367  0.8104493148321186  0.2669825543880974  1.0000
  Si  Si1       1.0  0.3728332437508764  0.2823699901624656  0.13726943048846474  1.0000
  Ca  Ca2       1.0  0.1064888362965036  0.10382776090277297  0.5795596364206151  1.0000
  O   O2        1.0  0.6955414657681636  0.4906900862670336  0.22649094438844497  1.0000
  O   O3        1.0  0.7186820921543223  0.8558234230706688  0.22117860802240988  1.0000
  O   O4        1.0  0.39533088942533556  0.24561780689885446  0.36998976009943313  1.0000
  Ti  Ti1       1.0  0.37469638243726594  0.6880265926978166  0.35299019225374534  1.0000
  Si  Si2       1.0  0.8353817860068633  0.6854896747627427  0.1378852206045922  1.0000
  O   O5        1.0  0.3258624612026681  0.09452125352690241  0.9087702075593237  1.0000
  O   O6        1.0  0.19350301682272308  0.4000094171232322  0.10467026639864825  1.0000
  Si  Si3       1.0  0.1159167637599041  0.5103086972707697  0.5801712871463194  1.0000
  Ti  Ti2       1.0  0.706450650046317  0.5419914601022021  0.5769150272949204  1.0000
  O   O7        1.0  0.7054594983438334  0.8162213938644578  0.6091529492303805  1.0000
  O   O8        1.0  0.7312151373924237  0.5683119366565195  0.8701992112451118  1.0000
