data_image0
_chemical_formula_structural       CaSiOSi
_chemical_formula_sum              "Ca1 Si2 O1"
_cell_length_a       3.815543020005353
_cell_length_b       3.820775848009645
_cell_length_c       6.156458377838134
_cell_angle_alpha    90.0241403930412
_cell_angle_beta     108.14538956892534
_cell_angle_gamma    119.94402156432973

_space_group_name_H-M_alt    "P 1"
_space_group_IT_number       1

loop_
  _space_group_symop_operation_xyz
  'x, y, z'

loop_
  _atom_site_type_symbol
  _atom_site_label
  _atom_site_symmetry_multiplicity
  _atom_site_fract_x
  _atom_site_fract_y
  _atom_site_fract_z
  _atom_site_occupancy
  Ca  Ca1       1.0  0.06517091606988111  0.0806503495600609  0.650522115254644  1.0000
  Si  Si1       1.0  0.4446867089774027  0.2706984971669915  0.22003470471513265  1.0000
  O   O1        1.0  0.6410209286894533  0.36894836895048433  0.5143286745629385  1.0000
  Si  Si2       1.0  0.6664310969921546  0.8811497082560675  0.05331453125021485  1.0000
