data_image0
_chemical_formula_structural       SiCaOCaO2TiSiCaO5CaSiO4
_chemical_formula_sum              "Si3 Ca4 O12 Ti1"
_cell_length_a       5.3884623387143655
_cell_length_b       6.527857979451311
_cell_length_c       9.577835083007812
_cell_angle_alpha    61.23085634699967
_cell_angle_beta     79.98816032621927
_cell_angle_gamma    67.03567017927541

_space_group_name_H-M_alt    "P 1"
_space_group_IT_number       1

loop_
  _space_group_symop_operation_xyz
  'x, y, z'

loop_
  _atom_site_type_symbol
  _atom_site_label
  _atom_site_symmetry_multiplicity
  _atom_site_fract_x
  _atom_site_fract_y
  _atom_site_fract_z
  _atom_site_occupancy
  Si  Si1       1.0  0.4558144400444809  0.43202715282309384  0.27664306897107727  1.0000
  Ca  Ca1       1.0  0.028080571446838568  0.310720807473886  0.20457734254688978  1.0000
  O   O1        1.0  0.6445996737770358  0.280601006224175  0.1720621252481642  1.0000
  Ca  Ca2       1.0  0.610459873285125  0.869955054522536  0.35069589936989215  1.0000
  O   O2        1.0  0.35477095210062304  0.07344031232607619  0.08599355440493549  1.0000
  O   O3        1.0  0.22672109667125603  0.6916272461058347  0.15125926639225407  1.0000
  Ti  Ti1       1.0  0.24867495812026993  0.9822497294034049  0.9675595542572536  1.0000
  Si  Si2       1.0  0.8651759500039677  0.8254205682232252  0.8496103855785828  1.0000
  Ca  Ca3       1.0  0.52705353896926  0.4003211465624187  0.9102402518381663  1.0000
  O   O4        1.0  0.961453250407702  0.8711865590668337  0.6649723830825133  1.0000
  O   O5        1.0  0.022538236150483067  0.6932889497086734  0.46312186542638656  1.0000
  O   O6        1.0  0.5534435232940635  0.8245699488402414  0.8765537761380917  1.0000
  O   O7        1.0  0.6703617342384136  0.484021397043425  0.34669102418081416  1.0000
  O   O8        1.0  0.08044531232388905  0.5665920700346248  0.9620673751984012  1.0000
  Ca  Ca4       1.0  0.9533453668666382  0.303905167713031  0.5753347861969444  1.0000
  Si  Si3       1.0  0.167231851769984  0.6279380768561674  0.6219875053079291  1.0000
  O   O9        1.0  0.3048408121593388  0.23485350316670642  0.39934899101872645  1.0000
  O   O10       1.0  0.47645838324345957  0.6188083369494615  0.6142620283897439  1.0000
  O   O11       1.0  0.8840705120049599  0.057201262274066494  0.8704337936257871  1.0000
  O   O12       1.0  0.16937633082921064  0.34611871856462106  0.7622038777293957  1.0000
