data_image0
_chemical_formula_structural       CaO2Si
_chemical_formula_sum              "Ca1 O2 Si1"
_cell_length_a       3.176144446279853
_cell_length_b       3.4086923785060543
_cell_length_c       4.823121547698975
_cell_angle_alpha    90.23187375813885
_cell_angle_beta     90.08113148882622
_cell_angle_gamma    90.06984118594329

_space_group_name_H-M_alt    "P 1"
_space_group_IT_number       1

loop_
  _space_group_symop_operation_xyz
  'x, y, z'

loop_
  _atom_site_type_symbol
  _atom_site_label
  _atom_site_symmetry_multiplicity
  _atom_site_fract_x
  _atom_site_fract_y
  _atom_site_fract_z
  _atom_site_occupancy
  Ca  Ca1       1.0  0.062457782367509665  0.4067638574118041  0.5597205530534614  1.0000
  O   O1        1.0  0.5623521160171318  0.40871901195666327  0.13067018369882377  1.0000
  O   O2        1.0  0.5622381773918759  0.9065900459482935  0.7249700490227995  1.0000
  Si  Si1       1.0  0.5624693113658698  0.9082828034249835  0.08294982991565708  1.0000
