data_image0
_chemical_formula_structural       SiCaTiCaO6
_chemical_formula_sum              "Si1 Ca2 Ti1 O6"
_cell_length_a       5.263339353486772
_cell_length_b       5.266499094413996
_cell_length_c       5.29565954208374
_cell_angle_alpha    119.76174094404159
_cell_angle_beta     119.77291323600647
_cell_angle_gamma    90.10439404124249

_space_group_name_H-M_alt    "P 1"
_space_group_IT_number       1

loop_
  _space_group_symop_operation_xyz
  'x, y, z'

loop_
  _atom_site_type_symbol
  _atom_site_label
  _atom_site_symmetry_multiplicity
  _atom_site_fract_x
  _atom_site_fract_y
  _atom_site_fract_z
  _atom_site_occupancy
  Si  Si1       1.0  0.562787463925554  0.48471007904036517  0.06249092760178217  1.0000
  Ca  Ca1       1.0  0.3127387317882478  0.7350280379726992  0.5625856907514037  1.0000
  Ti  Ti1       1.0  0.06275223557767097  0.9847628908037103  0.0625463566473513  1.0000
  Ca  Ca2       1.0  0.8128725118177325  0.2346390559446602  0.5626404342961061  1.0000
  O   O1        1.0  0.3232908895236455  0.24523892032318786  0.5833823394880878  1.0000
  O   O2        1.0  0.8022589865364672  0.7245020915056524  0.5418899758781733  1.0000
  O   O3        1.0  0.2855233015579619  0.6848592612568826  0.0623581173493697  1.0000
  O   O4        1.0  0.8399081922279541  0.28449152974007  0.06263252688425583  1.0000
  O   O5        1.0  0.7632816051966199  0.7620275817109143  0.06295824300483964  1.0000
  O   O6        1.0  0.362607733175149  0.2077154179447801  0.06250947444316181  1.0000
