data_image0
_chemical_formula_structural       TiOTiO2SiCaSi
_chemical_formula_sum              "Ti2 O3 Si2 Ca1"
_cell_length_a       3.484680821860718
_cell_length_b       3.483334620363603
_cell_length_c       11.282580375671387
_cell_angle_alpha    81.63857457270535
_cell_angle_beta     81.75805386074005
_cell_angle_gamma    60.721010086642025

_space_group_name_H-M_alt    "P 1"
_space_group_IT_number       1

loop_
  _space_group_symop_operation_xyz
  'x, y, z'

loop_
  _atom_site_type_symbol
  _atom_site_label
  _atom_site_symmetry_multiplicity
  _atom_site_fract_x
  _atom_site_fract_y
  _atom_site_fract_z
  _atom_site_occupancy
  Ti  Ti1       1.0  0.8988314312416107  0.5298547750653889  0.7979353765771598  1.0000
  O   O1        1.0  0.5431953344155407  0.17348411023745108  0.8680119611841779  1.0000
  Ti  Ti2       1.0  0.18331525704423737  0.8133402518248704  0.9520832436634397  1.0000
  O   O2        1.0  0.12220679331766988  0.7553640994975886  0.11764099301292334  1.0000
  O   O3        1.0  0.727151350787231  0.35752402055130067  0.32494899200357313  1.0000
  Si  Si1       1.0  0.9852509825379012  0.6128929654915661  0.5684466912474136  1.0000
  Ca  Ca1       1.0  0.4254091613488878  0.05710498133075005  0.21982408169939022  1.0000
  Si  Si2       1.0  0.6792177830600724  0.3083277328870721  0.47214265635849484  1.0000
