data_image0
_chemical_formula_structural       OCaO2SiO2TiOSiO
_chemical_formula_sum              "O7 Ca1 Si2 Ti1"
_cell_length_a       5.381463507637663
_cell_length_b       5.5473744892887735
_cell_length_c       6.534092426300048
_cell_angle_alpha    96.9924697304645
_cell_angle_beta     89.88697653081928
_cell_angle_gamma    118.90524823074237

_space_group_name_H-M_alt    "P 1"
_space_group_IT_number       1

loop_
  _space_group_symop_operation_xyz
  'x, y, z'

loop_
  _atom_site_type_symbol
  _atom_site_label
  _atom_site_symmetry_multiplicity
  _atom_site_fract_x
  _atom_site_fract_y
  _atom_site_fract_z
  _atom_site_occupancy
  O   O1        1.0  0.38638650822496673  0.9197184053326408  0.39160069489955357  1.0000
  Ca  Ca1       1.0  0.879893579197916  0.9075394940047774  0.40630567565206016  1.0000
  O   O2        1.0  0.24585699599833355  0.1562845246129883  0.6993892347665095  1.0000
  O   O3        1.0  0.20787320636861698  0.565114399985778  0.03247082352851732  1.0000
  Si  Si1       1.0  0.3738775611768695  0.8959636619471633  0.13405046943075255  1.0000
  O   O4        1.0  0.7057386098360751  0.031987226635300715  0.08398816519247718  1.0000
  O   O5        1.0  0.7631340906616865  0.1569979768676733  0.698914812946828  1.0000
  Ti  Ti1       1.0  0.028422116458704405  0.2052951854115851  0.9185451940280779  1.0000
  O   O6        1.0  0.17866926046985018  0.03353511943442455  0.08539690036878808  1.0000
  Si  Si2       1.0  0.5307033793734446  0.20916490883107225  0.574918085893001  1.0000
  O   O7        1.0  0.6697754309541091  0.4883028376059282  0.4738470175077244  1.0000
