data_image0
_chemical_formula_structural       Ca2TiO4SiO2
_chemical_formula_sum              "Ca2 Ti1 O6 Si1"
_cell_length_a       5.264007237701375
_cell_length_b       5.2632841376348765
_cell_length_c       5.292298316955566
_cell_angle_alpha    119.87879795649745
_cell_angle_beta     119.87287857937015
_cell_angle_gamma    90.04789061224396

_space_group_name_H-M_alt    "P 1"
_space_group_IT_number       1

loop_
  _space_group_symop_operation_xyz
  'x, y, z'

loop_
  _atom_site_type_symbol
  _atom_site_label
  _atom_site_symmetry_multiplicity
  _atom_site_fract_x
  _atom_site_fract_y
  _atom_site_fract_z
  _atom_site_occupancy
  Ca  Ca1       1.0  0.13602605448189597  0.24753614239404814  0.3189584131942756  1.0000
  Ca  Ca2       1.0  0.6370598358278124  0.7475065374101068  0.31912285401492463  1.0000
  Ti  Ti1       1.0  0.8865478095062959  0.49752858715292514  0.8190684617082377  1.0000
  O   O1        1.0  0.5863822807534569  0.7200367549979516  0.8193707286396872  1.0000
  O   O2        1.0  0.10877399368471723  0.7976691940791576  0.8187227175384196  1.0000
  O   O3        1.0  0.18638662856360763  0.2748784048370778  0.8185434961187631  1.0000
  O   O4        1.0  0.14721405742795654  0.7579637243248262  0.33986799093311576  1.0000
  Si  Si1       1.0  0.3863892663087736  0.9974591921779935  0.8188651091528469  1.0000
  O   O5        1.0  0.6640734252165269  0.1974558933942127  0.8193033663348057  1.0000
  O   O6        1.0  0.625729486145485  0.2370466317801353  0.29804620185043534  1.0000
