data_image0
_chemical_formula_structural       OSiOSiCaTiO6
_chemical_formula_sum              "O8 Si2 Ca1 Ti1"
_cell_length_a       5.641090051793804
_cell_length_b       5.64418707021409
_cell_length_c       5.654160976409912
_cell_angle_alpha    106.50473748064181
_cell_angle_beta     106.55844999802235
_cell_angle_gamma    115.24688700573364

_space_group_name_H-M_alt    "P 1"
_space_group_IT_number       1

loop_
  _space_group_symop_operation_xyz
  'x, y, z'

loop_
  _atom_site_type_symbol
  _atom_site_label
  _atom_site_symmetry_multiplicity
  _atom_site_fract_x
  _atom_site_fract_y
  _atom_site_fract_z
  _atom_site_occupancy
  O   O1        1.0  0.5352399504380806  0.8015457995783708  0.936628403996789  1.0000
  Si  Si1       1.0  0.7358247988172595  0.7770912965702175  0.7778788616419302  1.0000
  O   O2        1.0  0.16252535411367922  0.502530825310691  0.08088349494530486  1.0000
  Si  Si2       1.0  0.9426156986978919  0.5068639837899772  0.21556693104534774  1.0000
  Ca  Ca1       1.0  0.16901898093224113  0.25487438061347006  0.6938236924801343  1.0000
  Ti  Ti1       1.0  0.43674159344040675  0.9361890645532279  0.24970337140104307  1.0000
  O   O3        1.0  0.5671702504938382  0.4135285334900144  0.5780623684339357  1.0000
  O   O4        1.0  0.8507639390396015  0.2966904751086976  0.3606268188962699  1.0000
  O   O5        1.0  0.6810510518587208  0.908241744354362  0.5518472464122564  1.0000
  O   O6        1.0  0.15463272431455172  0.8627790915763468  0.42006382544130805  1.0000
  O   O7        1.0  0.627538571305005  0.40490440769710584  0.971769075982721  1.0000
  O   O8        1.0  0.09452155050953713  0.939199968198898  0.9654419674518121  1.0000
