data_image0
_chemical_formula_structural       SiO2SiOTiO2CaO3
_chemical_formula_sum              "Si2 O8 Ti1 Ca1"
_cell_length_a       5.645782196957683
_cell_length_b       5.647845775674865
_cell_length_c       5.654592990875243
_cell_angle_alpha    106.4448780694797
_cell_angle_beta     106.41134763036648
_cell_angle_gamma    115.54500002240763

_space_group_name_H-M_alt    "P 1"
_space_group_IT_number       1

loop_
  _space_group_symop_operation_xyz
  'x, y, z'

loop_
  _atom_site_type_symbol
  _atom_site_label
  _atom_site_symmetry_multiplicity
  _atom_site_fract_x
  _atom_site_fract_y
  _atom_site_fract_z
  _atom_site_occupancy
  Si  Si1       1.0  0.9115701831401694  0.9305235110399425  0.7084397251660272  1.0000
  O   O1        1.0  0.3160934720771592  0.635918225354772  0.9871382563621824  1.0000
  O   O2        1.0  0.0027835940910618806  0.14259331488157806  0.5647256013284819  1.0000
  Si  Si2       1.0  0.11609349668026403  0.6608190973651656  0.14624149344519127  1.0000
  O   O3        1.0  0.7573731573705527  0.4969378133910389  0.9583764996038541  1.0000
  Ti  Ti1       1.0  0.4161792918105815  0.4987827990684815  0.6699265169559367  1.0000
  O   O4        1.0  0.6921500677440313  0.9333821237276191  0.8440441708722473  1.0000
  O   O5        1.0  0.28547554213677045  0.024543603397604648  0.34680074227089586  1.0000
  Ca  Ca1       1.0  0.6840784851726236  0.18146947422958246  0.2298432841824038  1.0000
  O   O6        1.0  0.6978280780359691  0.5742329139476879  0.5021936780984678  1.0000
  O   O7        1.0  0.2264565833241106  0.030305129971431307  0.9496668829993596  1.0000
  O   O8        1.0  0.17253230456383167  0.529428523748853  0.3718282287096696  1.0000
