data_image0
_chemical_formula_structural       TiOCaOCaSiTiO
_chemical_formula_sum              "Ti2 O3 Ca2 Si1"
_cell_length_a       3.457523209876805
_cell_length_b       3.7263274165030547
_cell_length_c       9.22488784790039
_cell_angle_alpha    90.02890103671875
_cell_angle_beta     100.90030134787447
_cell_angle_gamma    90.06338665918469

_space_group_name_H-M_alt    "P 1"
_space_group_IT_number       1

loop_
  _space_group_symop_operation_xyz
  'x, y, z'

loop_
  _atom_site_type_symbol
  _atom_site_label
  _atom_site_symmetry_multiplicity
  _atom_site_fract_x
  _atom_site_fract_y
  _atom_site_fract_z
  _atom_site_occupancy
  Ti  Ti1       1.0  0.0263587865939033  0.9951797592258691  0.6162902226546884  1.0000
  O   O1        1.0  0.17470743468674393  0.995422928085916  0.9131332159768489  1.0000
  Ca  Ca1       1.0  0.7727226395830478  0.9954805678337477  0.10860976914489072  1.0000
  O   O2        1.0  0.28223421167301693  0.4956727490956522  0.1265323863684619  1.0000
  Ca  Ca2       1.0  0.40681119508917457  0.4952825997439979  0.3769599655580054  1.0000
  Si  Si1       1.0  0.5601468875668608  0.4952252248023301  0.6840312168570775  1.0000
  Ti  Ti2       1.0  0.1648355950392972  0.4953912244463318  0.8926267503979189  1.0000
  O   O3        1.0  0.9162648486364223  0.9950806918122879  0.39638673628932913  1.0000
