data_image0
_chemical_formula_structural       CaOTiOSi2
_chemical_formula_sum              "Ca1 O2 Ti1 Si2"
_cell_length_a       3.2926669348942093
_cell_length_b       3.8388788015429274
_cell_length_c       7.721349716186524
_cell_angle_alpha    81.26668356228392
_cell_angle_beta     77.83161800348987
_cell_angle_gamma    64.71900448059557

_space_group_name_H-M_alt    "P 1"
_space_group_IT_number       1

loop_
  _space_group_symop_operation_xyz
  'x, y, z'

loop_
  _atom_site_type_symbol
  _atom_site_label
  _atom_site_symmetry_multiplicity
  _atom_site_fract_x
  _atom_site_fract_y
  _atom_site_fract_z
  _atom_site_occupancy
  Ca  Ca1       1.0  0.2796968008460806  0.7866864392337084  0.43346766144294696  1.0000
  O   O1        1.0  0.16483281663081098  0.6588846020628577  0.7947547624463317  1.0000
  Ti  Ti1       1.0  0.8842706901261902  0.2599807876830831  0.7526125206985447  1.0000
  O   O2        1.0  0.5332208200076267  0.13514266398155164  0.5799051002689046  1.0000
  Si  Si1       1.0  0.7007205212360388  0.2340300116063549  0.142952513562196  1.0000
  Si  Si2       1.0  0.059520849233787615  0.6352852531559843  0.02422013653856308  1.0000
