data_image0
_chemical_formula_structural       CaTiSi2O6
_chemical_formula_sum              "Ca1 Ti1 Si2 O6"
_cell_length_a       5.151248246792019
_cell_length_b       5.753281724252521
_cell_length_c       5.389613628387451
_cell_angle_alpha    117.5343580390893
_cell_angle_beta     87.88928283223322
_cell_angle_gamma    92.04544634704955

_space_group_name_H-M_alt    "P 1"
_space_group_IT_number       1

loop_
  _space_group_symop_operation_xyz
  'x, y, z'

loop_
  _atom_site_type_symbol
  _atom_site_label
  _atom_site_symmetry_multiplicity
  _atom_site_fract_x
  _atom_site_fract_y
  _atom_site_fract_z
  _atom_site_occupancy
  Ca  Ca1       1.0  0.7449234654934941  0.343745981844838  0.7945546579380929  1.0000
  Ti  Ti1       1.0  0.2530262963423375  0.7520593064457456  0.42843065246762757  1.0000
  Si  Si1       1.0  0.009281351619298647  0.8339247089806187  0.9291439395612532  1.0000
  Si  Si2       1.0  0.49949660131996587  0.14693580872101522  0.16808129127245383  1.0000
  O   O1        1.0  0.3061873926803849  0.9485444155142423  0.9044331993551316  1.0000
  O   O2        1.0  0.9877063675455516  0.7082465411333105  0.14096984555779457  1.0000
  O   O3        1.0  0.9597753103248554  0.6047365068947183  0.6146027824693102  1.0000
  O   O4        1.0  0.4669588987613767  0.43536866609051134  0.1918615421208691  1.0000
  O   O5        1.0  0.4667522891331856  0.09006571265553566  0.43431492154682394  1.0000
  O   O6        1.0  0.8012411627539774  0.07748964374471873  0.019778798794881067  1.0000
