data_image0
_chemical_formula_structural       OCaOTiOSiO2CaO
_chemical_formula_sum              "O6 Ca2 Ti1 Si1"
_cell_length_a       5.850750000868427
_cell_length_b       5.760083142490457
_cell_length_c       5.7751994132995605
_cell_angle_alpha    68.76384231487184
_cell_angle_beta     55.4330402061216
_cell_angle_gamma    72.71315523674065

_space_group_name_H-M_alt    "P 1"
_space_group_IT_number       1

loop_
  _space_group_symop_operation_xyz
  'x, y, z'

loop_
  _atom_site_type_symbol
  _atom_site_label
  _atom_site_symmetry_multiplicity
  _atom_site_fract_x
  _atom_site_fract_y
  _atom_site_fract_z
  _atom_site_occupancy
  O   O1        1.0  0.20092640541698584  0.5567845045229204  0.5149788154292823  1.0000
  Ca  Ca1       1.0  0.31917829294086164  0.7654798906290086  0.7238374491915286  1.0000
  O   O2        1.0  0.533953677000732  0.8862965150348605  0.8922989819746692  1.0000
  Ti  Ti1       1.0  0.06406862660167788  0.35846862965469894  0.46456138438280536  1.0000
  O   O3        1.0  0.6309220697220415  0.39586296678834604  0.7244316325450346  1.0000
  Si  Si1       1.0  0.6127389932654527  0.10501513838001199  0.9360142155475378  1.0000
  O   O4        1.0  0.4234502556838812  0.13426917648308107  0.27685685480423156  1.0000
  O   O5        1.0  0.027781386774514867  0.5062666007350253  0.15235933703800428  1.0000
  Ca  Ca2       1.0  0.6830068400070054  0.4957603731335994  0.10505946447859929  1.0000
  O   O6        1.0  0.9474266594352988  0.06421349554820564  0.8332313537045279  1.0000
