data_image0
_chemical_formula_structural       OCaOCaOTiSiO3
_chemical_formula_sum              "O6 Ca2 Ti1 Si1"
_cell_length_a       5.193549470473402
_cell_length_b       5.194150878117325
_cell_length_c       5.831672191619872
_cell_angle_alpha    63.55483400467028
_cell_angle_beta     63.417777378890754
_cell_angle_gamma    59.82887366236034

_space_group_name_H-M_alt    "P 1"
_space_group_IT_number       1

loop_
  _space_group_symop_operation_xyz
  'x, y, z'

loop_
  _atom_site_type_symbol
  _atom_site_label
  _atom_site_symmetry_multiplicity
  _atom_site_fract_x
  _atom_site_fract_y
  _atom_site_fract_z
  _atom_site_occupancy
  O   O1        1.0  0.9199382722655207  0.7005904235949653  0.9555687048551516  1.0000
  Ca  Ca1       1.0  0.1401404107855434  0.30729972081002815  0.33010325015293246  1.0000
  O   O2        1.0  0.5338062312565043  0.50901666533115  0.9551888828260994  1.0000
  Ca  Ca2       1.0  0.8749396220916332  0.040905597641426  0.12865509780068504  1.0000
  O   O3        1.0  0.34205064896252635  0.08753913275314888  0.9553804383667853  1.0000
  Ti  Ti1       1.0  0.3487665400921082  0.5157904778855489  0.7053658483092153  1.0000
  Si  Si1       1.0  0.6617003766770365  0.8280375151681509  0.7669481727893884  1.0000
  O   O4        1.0  0.47864009317011663  0.8663020252810413  0.5303152080815722  1.0000
  O   O5        1.0  0.6996536979248206  0.20960557100861568  0.5296711836583335  1.0000
  O   O6        1.0  0.043261756562285994  0.6453199368720012  0.5303048863153188  1.0000
