data_image0
_chemical_formula_structural       CaSiTiSiO7Ca
_chemical_formula_sum              "Ca2 Si2 Ti1 O7"
_cell_length_a       5.590581431919917
_cell_length_b       6.526163979341555
_cell_length_c       6.529128074645995
_cell_angle_alpha    78.23080089337297
_cell_angle_beta     74.79942311435494
_cell_angle_gamma    85.73864104230903

_space_group_name_H-M_alt    "P 1"
_space_group_IT_number       1

loop_
  _space_group_symop_operation_xyz
  'x, y, z'

loop_
  _atom_site_type_symbol
  _atom_site_label
  _atom_site_symmetry_multiplicity
  _atom_site_fract_x
  _atom_site_fract_y
  _atom_site_fract_z
  _atom_site_occupancy
  Ca  Ca1       1.0  0.5989376150626968  0.016282622463150022  0.8557976083728003  1.0000
  Si  Si1       1.0  0.19984120070063954  0.24644908976276866  0.6193948198057794  1.0000
  Ti  Ti1       1.0  0.3830197840630029  0.601891130114949  0.6698209088016327  1.0000
  Si  Si2       1.0  0.5727620528523962  0.9764966902721749  0.31805785356792515  1.0000
  O   O1        1.0  0.8130938490547196  0.014110832178836375  0.11421273310617899  1.0000
  O   O2        1.0  0.2713037029329175  0.7481855960527674  0.8713959611405339  1.0000
  O   O3        1.0  0.3836365169485182  0.32120383504942635  0.7945472292135928  1.0000
  O   O4        1.0  0.3538377028902816  0.9291312013642535  0.21781489203344467  1.0000
  O   O5        1.0  0.4904955750633667  0.15564286930682794  0.4702118445538967  1.0000
  O   O6        1.0  0.18706733484603488  0.516619341742656  0.5065829384992443  1.0000
  O   O7        1.0  0.6553001765183273  0.760124274878254  0.4842840015221848  1.0000
  Ca  Ca2       1.0  0.05965272934669079  0.7382046202358544  0.22107727246875003  1.0000
