data_image0
_chemical_formula_structural       Ca2TiO2SiO4
_chemical_formula_sum              "Ca2 Ti1 O6 Si1"
_cell_length_a       5.264117290911587
_cell_length_b       5.266128123568882
_cell_length_c       5.26519250869751
_cell_angle_alpha    60.399464896441984
_cell_angle_beta     60.0956248338164
_cell_angle_gamma    60.14258908673335

_space_group_name_H-M_alt    "P 1"
_space_group_IT_number       1

loop_
  _space_group_symop_operation_xyz
  'x, y, z'

loop_
  _atom_site_type_symbol
  _atom_site_label
  _atom_site_symmetry_multiplicity
  _atom_site_fract_x
  _atom_site_fract_y
  _atom_site_fract_z
  _atom_site_occupancy
  Ca  Ca1       1.0  0.48112678818080634  0.7240675941232492  0.20904030524876283  1.0000
  Ca  Ca2       1.0  0.9803998279843694  0.2318203985022445  0.7035040345675164  1.0000
  Ti  Ti1       1.0  0.7307366199083286  0.9779541637982614  0.4561993163964899  1.0000
  O   O1        1.0  0.9613188213790672  0.2690748081031093  0.2232903359993183  1.0000
  O   O2        1.0  0.9925180295777651  0.7718706082208106  0.13961910386720447  1.0000
  Si  Si1       1.0  0.230701667346065  0.47793711815749745  0.9562218301556132  1.0000
  O   O3        1.0  0.46888629320748754  0.18399869462660762  0.7728210159206309  1.0000
  O   O4        1.0  0.5001480235752682  0.686763598496887  0.6892138879841953  1.0000
  O   O5        1.0  0.02046040519501202  0.6881907985892748  0.6881815620431015  1.0000
  O   O6        1.0  0.44101703407005255  0.26763138603076586  0.22427913315841344  1.0000
