data_image0
_chemical_formula_structural       CaOCaO2Si2OSiO5SiO
_chemical_formula_sum              "Ca2 O10 Si4"
_cell_length_a       4.7638578118029455
_cell_length_b       6.662236544881063
_cell_length_c       7.614023208618166
_cell_angle_alpha    83.743016386152
_cell_angle_beta     90.14258954146366
_cell_angle_gamma    90.13169538895072

_space_group_name_H-M_alt    "P 1"
_space_group_IT_number       1

loop_
  _space_group_symop_operation_xyz
  'x, y, z'

loop_
  _atom_site_type_symbol
  _atom_site_label
  _atom_site_symmetry_multiplicity
  _atom_site_fract_x
  _atom_site_fract_y
  _atom_site_fract_z
  _atom_site_occupancy
  Ca  Ca1       1.0  0.2605050756516915  0.7371737909475807  0.6324481859285794  1.0000
  O   O1        1.0  0.9498873100906937  0.44301116993121126  0.5711748200358268  1.0000
  Ca  Ca2       1.0  0.7598548697520493  0.8057404906598318  0.027518803098528968  1.0000
  O   O2        1.0  0.8996212116047422  0.6073512264716961  0.24099871735674885  1.0000
  O   O3        1.0  0.6507367270017882  0.6100219439155649  0.8051880180502838  1.0000
  Si  Si1       1.0  0.2838251387231348  0.14431782335879909  0.8973113012681366  1.0000
  Si  Si2       1.0  0.9797985278898516  0.40427401053823847  0.3565543228755959  1.0000
  O   O4        1.0  0.31233079778406425  0.345703108469603  0.33739174133248484  1.0000
  Si  Si3       1.0  0.7834808716613229  0.39825582822842237  0.7616301190613045  1.0000
  O   O5        1.0  0.8120564596589878  0.19647544028492278  0.32373152321120685  1.0000
  O   O6        1.0  0.539910456980002  0.22208413922380932  0.757764164782639  1.0000
  O   O7        1.0  0.15102713025042738  0.9315285560696347  0.8550267683108986  1.0000
  O   O8        1.0  0.3981304486951885  0.9345041973095081  0.41744917894808264  1.0000
  O   O9        1.0  0.040493260162682655  0.31976510700282906  0.9004970974158187  1.0000
  Si  Si4       1.0  0.47912844028304247  0.13844645587142815  0.30327302205559936  1.0000
  O   O10       1.0  0.450900268605671  0.10181996635404102  0.08802475876790294  1.0000
