data_image0
_chemical_formula_structural       CaSi2TiO8
_chemical_formula_sum              "Ca1 Si2 Ti1 O8"
_cell_length_a       5.343707004399536
_cell_length_b       5.346979255072426
_cell_length_c       6.522977352142333
_cell_angle_alpha    89.95645321939058
_cell_angle_beta     90.04073092354754
_cell_angle_gamma    119.96366821803282

_space_group_name_H-M_alt    "P 1"
_space_group_IT_number       1

loop_
  _space_group_symop_operation_xyz
  'x, y, z'

loop_
  _atom_site_type_symbol
  _atom_site_label
  _atom_site_symmetry_multiplicity
  _atom_site_fract_x
  _atom_site_fract_y
  _atom_site_fract_z
  _atom_site_occupancy
  Ca  Ca1       1.0  0.8505328412023535  0.14884135557597797  0.04754851185730322  1.0000
  Si  Si1       1.0  0.5172969162371043  0.48207372549356153  0.8051717866118273  1.0000
  Si  Si2       1.0  0.18368175680039478  0.815203158017184  0.28993691335786964  1.0000
  Ti  Ti1       1.0  0.850463544635448  0.1486274549202715  0.5475645124578998  1.0000
  O   O1        1.0  0.015504099360135458  0.9841782018244629  0.3606544298496154  1.0000
  O   O2        1.0  0.5175348388004614  0.48177227182272125  0.05864362016755564  1.0000
  O   O3        1.0  0.6854953698446193  0.31312732972037616  0.7344353838594506  1.0000
  O   O4        1.0  0.6859160066700574  0.8191274501676583  0.7346170096950674  1.0000
  O   O5        1.0  0.015003596332418873  0.47823068230588434  0.3607157985562876  1.0000
  O   O6        1.0  0.5209588372392118  0.983636731068358  0.36037871192504356  1.0000
  O   O7        1.0  0.18282347304060562  0.8148419314525754  0.03646383205645249  1.0000
  O   O8        1.0  0.1800796296580368  0.3136162835319063  0.7345715760244365  1.0000
