data_image0
_chemical_formula_structural       SiOCa2TiO5
_chemical_formula_sum              "Si1 O6 Ca2 Ti1"
_cell_length_a       5.492781055371505
_cell_length_b       5.0975299057686065
_cell_length_c       5.368680477142334
_cell_angle_alpha    70.7021628618229
_cell_angle_beta     73.36614757698375
_cell_angle_gamma    80.85073228821581

_space_group_name_H-M_alt    "P 1"
_space_group_IT_number       1

loop_
  _space_group_symop_operation_xyz
  'x, y, z'

loop_
  _atom_site_type_symbol
  _atom_site_label
  _atom_site_symmetry_multiplicity
  _atom_site_fract_x
  _atom_site_fract_y
  _atom_site_fract_z
  _atom_site_occupancy
  Si  Si1       1.0  0.41815826817690205  0.22706035285350526  0.32178552843019426  1.0000
  O   O1        1.0  0.579666811949913  0.9356091628182952  0.5111026426021249  1.0000
  Ca  Ca1       1.0  0.9356819728074963  0.7249579100996034  0.2765519732500772  1.0000
  Ca  Ca2       1.0  0.8021680479565723  0.1213996370553755  0.7066542634741247  1.0000
  Ti  Ti1       1.0  0.33151672628252665  0.6452568632660217  0.6237376061465318  1.0000
  O   O2        1.0  0.21845872599475447  0.9614418826425839  0.3450658071771197  1.0000
  O   O3        1.0  0.6082294255244916  0.4395574988741125  0.39478976657978293  1.0000
  O   O4        1.0  0.16314154831269348  0.3799458562798653  0.5135013912284826  1.0000
  O   O5        1.0  0.04827382873053087  0.720732985425408  0.8624093247762795  1.0000
  O   O6        1.0  0.4970389497711209  0.3483657924584116  0.9815942738877657  1.0000
