data_image0
_chemical_formula_structural       CaTiSiO2CaO4
_chemical_formula_sum              "Ca2 Ti1 Si1 O6"
_cell_length_a       5.298735562739943
_cell_length_b       5.3001974354195
_cell_length_c       5.299274444580078
_cell_angle_alpha    59.93211884411183
_cell_angle_beta     59.976670156138326
_cell_angle_gamma    59.9230591622971

_space_group_name_H-M_alt    "P 1"
_space_group_IT_number       1

loop_
  _space_group_symop_operation_xyz
  'x, y, z'

loop_
  _atom_site_type_symbol
  _atom_site_label
  _atom_site_symmetry_multiplicity
  _atom_site_fract_x
  _atom_site_fract_y
  _atom_site_fract_z
  _atom_site_occupancy
  Ca  Ca1       1.0  0.5727085660637258  0.6740331268496771  0.6318007900812089  1.0000
  Ti  Ti1       1.0  0.8230710967663489  0.9241832425922115  0.8817398150249341  1.0000
  Si  Si1       1.0  0.3230610528806019  0.4241972506393736  0.3816883347462933  1.0000
  O   O1        1.0  0.5622182122282754  0.1851393221627007  0.14222967812685922  1.0000
  O   O2        1.0  0.08391540298722804  0.18503910396829049  0.6206917370421603  1.0000
  Ca  Ca2       1.0  0.07289205672431949  0.17384513710742  0.13206410348225697  1.0000
  O   O3        1.0  0.5621216179132681  0.6635122291371629  0.14230117916335508  1.0000
  O   O4        1.0  0.08377217736750565  0.6634806158456994  0.6207524712757696  1.0000
  O   O5        1.0  0.5621880946487596  0.18517712782358065  0.6207270279801134  1.0000
  O   O6        1.0  0.08394570412399271  0.6634169827936599  0.14218443468119854  1.0000
