data_image0
_chemical_formula_structural       SiCaO3TiOCaO2
_chemical_formula_sum              "Si1 Ca2 O6 Ti1"
_cell_length_a       5.295395715714401
_cell_length_b       5.299058353652337
_cell_length_c       5.298641681671143
_cell_angle_alpha    59.94698537019112
_cell_angle_beta     59.95410987142836
_cell_angle_gamma    59.933667958791744

_space_group_name_H-M_alt    "P 1"
_space_group_IT_number       1

loop_
  _space_group_symop_operation_xyz
  'x, y, z'

loop_
  _atom_site_type_symbol
  _atom_site_label
  _atom_site_symmetry_multiplicity
  _atom_site_fract_x
  _atom_site_fract_y
  _atom_site_fract_z
  _atom_site_occupancy
  Si  Si1       1.0  0.7700727526071636  0.47351987055497324  0.5398837299349224  1.0000
  Ca  Ca1       1.0  0.019988829703297954  0.7234750433932621  0.7902383199735205  1.0000
  O   O1        1.0  0.009282112426307998  0.2344586359101537  0.779206292674751  1.0000
  O   O2        1.0  0.5309255509634643  0.7127731080429313  0.779154321322023  1.0000
  O   O3        1.0  0.009332754620822505  0.23440502909721397  0.30072351683854465  1.0000
  Ti  Ti1       1.0  0.2700602718899611  0.9735195225986328  0.03988030335270037  1.0000
  O   O4        1.0  0.5309542486335823  0.2343692944157669  0.7792250037986478  1.0000
  Ca  Ca2       1.0  0.5201075210360563  0.22348857766636945  0.2895998297855818  1.0000
  O   O5        1.0  0.00933516806970787  0.71274371369306  0.3007227480521717  1.0000
  O   O6        1.0  0.5309277941112238  0.7127187199997896  0.3007365876831561  1.0000
