data_image0
_chemical_formula_structural       TiSi2O
_chemical_formula_sum              "Ti1 Si2 O1"
_cell_length_a       3.128960076739505
_cell_length_b       3.1256126437758907
_cell_length_c       7.6423096656799325
_cell_angle_alpha    78.30647924899543
_cell_angle_beta     78.29335190965699
_cell_angle_gamma    60.002804716866976

_space_group_name_H-M_alt    "P 1"
_space_group_IT_number       1

loop_
  _space_group_symop_operation_xyz
  'x, y, z'

loop_
  _atom_site_type_symbol
  _atom_site_label
  _atom_site_symmetry_multiplicity
  _atom_site_fract_x
  _atom_site_fract_y
  _atom_site_fract_z
  _atom_site_occupancy
  Ti  Ti1       1.0  0.16538066214909633  0.7798217116506767  0.45605663577239836  1.0000
  Si  Si1       1.0  0.7415660973133601  0.3557376545691433  0.7294445344763086  1.0000
  Si  Si2       1.0  0.001424118595470416  0.6139983305421519  0.953570655798821  1.0000
  O   O1        1.0  0.5322222278177767  0.1460020234563504  0.3554885089497196  1.0000
