data_image0
_chemical_formula_structural       TiCaSi2O6
_chemical_formula_sum              "Ti1 Ca1 Si2 O6"
_cell_length_a       4.415469879634629
_cell_length_b       5.139163574671913
_cell_length_c       6.23290491104126
_cell_angle_alpha    105.42121677145735
_cell_angle_beta     89.17132288104888
_cell_angle_gamma    95.5907445713378

_space_group_name_H-M_alt    "P 1"
_space_group_IT_number       1

loop_
  _space_group_symop_operation_xyz
  'x, y, z'

loop_
  _atom_site_type_symbol
  _atom_site_label
  _atom_site_symmetry_multiplicity
  _atom_site_fract_x
  _atom_site_fract_y
  _atom_site_fract_z
  _atom_site_occupancy
  Ti  Ti1       1.0  0.22915300630253008  0.3631586515711761  0.21764297811213212  1.0000
  Ca  Ca1       1.0  0.6887518599766843  0.7662710789767748  0.934682436975362  1.0000
  Si  Si1       1.0  0.16166680056961702  0.18867148047261362  0.753287619242515  1.0000
  Si  Si2       1.0  0.6440156243092929  0.009757963332956733  0.42579892035367595  1.0000
  O   O1        1.0  0.38780140692591425  0.2284831366051437  0.5417741137364378  1.0000
  O   O2        1.0  0.8563971756246133  0.9842334015271146  0.6363958451175579  1.0000
  O   O3        1.0  0.8372344595163769  0.13373405239522923  0.24820141987771283  1.0000
  O   O4        1.0  0.30583824505693746  0.03875524167783945  0.9196673510872859  1.0000
  O   O5        1.0  0.08271216221015366  0.4790688650479764  0.9087714866247835  1.0000
  O   O6        1.0  0.49039884793512106  0.7150468800517209  0.29219111534732883  1.0000
