data_image0
_chemical_formula_structural       Si2CaO6TiO2
_chemical_formula_sum              "Si2 Ca1 O8 Ti1"
_cell_length_a       5.090888333324398
_cell_length_b       5.103871110016558
_cell_length_c       6.38914680480957
_cell_angle_alpha    90.58163409521009
_cell_angle_beta     90.40189767123178
_cell_angle_gamma    99.88614068853676

_space_group_name_H-M_alt    "P 1"
_space_group_IT_number       1

loop_
  _space_group_symop_operation_xyz
  'x, y, z'

loop_
  _atom_site_type_symbol
  _atom_site_label
  _atom_site_symmetry_multiplicity
  _atom_site_fract_x
  _atom_site_fract_y
  _atom_site_fract_z
  _atom_site_occupancy
  Si  Si1       1.0  0.5362801086269136  0.7712525267214984  0.6263070334373995  1.0000
  Si  Si2       1.0  0.929956919742995  0.3761176458839957  0.1271560180318875  1.0000
  Ca  Ca1       1.0  0.16031921838535593  0.1466886837637166  0.6267119184538453  1.0000
  O   O1        1.0  0.4147355797620735  0.891049664568108  0.8341982201937803  1.0000
  O   O2        1.0  0.41715355406563803  0.8930204616144815  0.41893729488239256  1.0000
  O   O3        1.0  0.07632137140349103  0.2233087711626056  0.9455931407676693  1.0000
  O   O4        1.0  0.6096791896260401  0.2748137665049991  0.1278270728498436  1.0000
  O   O5        1.0  0.08123891308855952  0.22889529447088264  0.3083411300522585  1.0000
  O   O6        1.0  0.8564252108492418  0.7566543675172225  0.6279724859160185  1.0000
  Ti  Ti1       1.0  0.2894432155836872  0.01670769676088898  0.12646627071843125  1.0000
  O   O7        1.0  0.5492225718178568  0.45160988060934  0.624869712984752  1.0000
  O   O8        1.0  0.033215586290793575  0.6953697698863587  0.12606897789319105  1.0000
