data_image0
_chemical_formula_structural       OSiOSiTiO2CaO4
_chemical_formula_sum              "O8 Si2 Ti1 Ca1"
_cell_length_a       5.635496773318259
_cell_length_b       5.630604306031767
_cell_length_c       5.637145042419434
_cell_angle_alpha    106.54573974919431
_cell_angle_beta     106.59127468106085
_cell_angle_gamma    115.33645910671144

_space_group_name_H-M_alt    "P 1"
_space_group_IT_number       1

loop_
  _space_group_symop_operation_xyz
  'x, y, z'

loop_
  _atom_site_type_symbol
  _atom_site_label
  _atom_site_symmetry_multiplicity
  _atom_site_fract_x
  _atom_site_fract_y
  _atom_site_fract_z
  _atom_site_occupancy
  O   O1        1.0  0.3549586208450104  0.29520396788169745  0.8523915305319655  1.0000
  Si  Si1       1.0  0.5154641615637752  0.7212973802752689  0.6001100253219527  1.0000
  O   O2        1.0  0.8952447427490524  0.8262354252779691  0.2561091098424114  1.0000
  Si  Si2       1.0  0.7142254041458177  0.4621512511993787  0.045367930111045375  1.0000
  Ti  Ti1       1.0  0.025475914749242448  0.28264261373358995  0.551590809995479  1.0000
  O   O3        1.0  0.7728785794049201  0.3194042008812033  0.2595528751341663  1.0000
  O   O4        1.0  0.8271229169720561  0.8041446902036564  0.8348141825796874  1.0000
  Ca  Ca1       1.0  0.2897149733237235  0.9712472353219974  0.12310509936459099  1.0000
  O   O5        1.0  0.29829634385416737  0.36612411841816994  0.3836876280927909  1.0000
  O   O6        1.0  0.2960626262620635  0.7209204368857268  0.7357286129642622  1.0000
  O   O7        1.0  0.9073934916552246  0.4332799732633446  0.8768992178818764  1.0000
  O   O8        1.0  0.6122180644397394  0.9442502701603176  0.46835635218531396  1.0000
