data_image0
_chemical_formula_structural       TiO2CaO3Si2O3
_chemical_formula_sum              "Ti1 O8 Ca1 Si2"
_cell_length_a       5.353733891144538
_cell_length_b       5.356971967573953
_cell_length_c       6.510584831237793
_cell_angle_alpha    89.95493008446235
_cell_angle_beta     90.05792251161922
_cell_angle_gamma    119.92630713550264

_space_group_name_H-M_alt    "P 1"
_space_group_IT_number       1

loop_
  _space_group_symop_operation_xyz
  'x, y, z'

loop_
  _atom_site_type_symbol
  _atom_site_label
  _atom_site_symmetry_multiplicity
  _atom_site_fract_x
  _atom_site_fract_y
  _atom_site_fract_z
  _atom_site_occupancy
  Ti  Ti1       1.0  0.6843064445497642  0.697713300342953  0.2032473082538049  1.0000
  O   O1        1.0  0.017476434806571184  0.3639945917949477  0.7145135107630883  1.0000
  O   O2        1.0  0.014123685893616398  0.8627732608429595  0.01644113546418047  1.0000
  Ca  Ca1       1.0  0.684131917423808  0.6976724070739906  0.7032458307304514  1.0000
  O   O3        1.0  0.5191846902102508  0.8624677401318556  0.016343037906501892  1.0000
  O   O4        1.0  0.5195465192186235  0.36791780649097805  0.016272075499393513  1.0000
  O   O5        1.0  0.3506919574353758  0.030761816834242808  0.6920101362705868  1.0000
  Si  Si1       1.0  0.350830562520491  0.03130952072754756  0.9460399303661244  1.0000
  Si  Si2       1.0  0.017730962369337216  0.36408202309616056  0.4604831058733737  1.0000
  O   O6        1.0  0.8490533904450337  0.027546078874613987  0.3900599095708658  1.0000
  O   O7        1.0  0.8493488028659734  0.5329291892709501  0.3902651290783549  1.0000
  O   O8        1.0  0.3544815347326331  0.532628314710207  0.39019043965441963  1.0000
