data_image0
_chemical_formula_structural       TiO2SiO2CaOTiOSiO
_chemical_formula_sum              "Ti2 O7 Si2 Ca1"
_cell_length_a       4.75308063565554
_cell_length_b       6.315378736195768
_cell_length_c       8.19344425201416
_cell_angle_alpha    121.63105249470313
_cell_angle_beta     121.35089082349951
_cell_angle_gamma    87.22233566971265

_space_group_name_H-M_alt    "P 1"
_space_group_IT_number       1

loop_
  _space_group_symop_operation_xyz
  'x, y, z'

loop_
  _atom_site_type_symbol
  _atom_site_label
  _atom_site_symmetry_multiplicity
  _atom_site_fract_x
  _atom_site_fract_y
  _atom_site_fract_z
  _atom_site_occupancy
  Ti  Ti1       1.0  0.47494989407449734  0.223008921516248  0.22405471393211543  1.0000
  O   O1        1.0  0.5920326498238527  0.4630926800487131  0.5450842713494908  1.0000
  O   O2        1.0  0.20624788763670762  0.5900263802397205  0.2698855541220294  1.0000
  Si  Si1       1.0  0.025660946767319524  0.8860601534571376  0.6410164747189875  1.0000
  O   O3        1.0  0.2681685135881214  0.9219440451611813  0.15085274981619778  1.0000
  O   O4        1.0  0.9350394570569183  0.25977339083732776  0.30811969335513995  1.0000
  Ca  Ca1       1.0  0.08132075069869328  0.46808540868342413  0.8474625168293994  1.0000
  O   O5        1.0  0.6203396006314109  0.6361485144766282  0.9651425585009201  1.0000
  Ti  Ti2       1.0  0.9937754469248435  0.8642781061542333  0.23768857543560667  1.0000
  O   O6        1.0  0.24511725912771246  0.14543098095117524  0.920099649038545  1.0000
  Si  Si2       1.0  0.2349688694504544  0.5538742232060457  0.4661616585388665  1.0000
  O   O7        1.0  0.9884443922513423  0.03239805530239588  0.5159866781521003  1.0000
