data_image0
_chemical_formula_structural       TiSiO2CaO4SiO2
_chemical_formula_sum              "Ti1 Si2 O8 Ca1"
_cell_length_a       5.341083283698961
_cell_length_b       5.340948418991047
_cell_length_c       6.509326457977295
_cell_angle_alpha    90.03118231801751
_cell_angle_beta     90.06626216594343
_cell_angle_gamma    119.91298575154288

_space_group_name_H-M_alt    "P 1"
_space_group_IT_number       1

loop_
  _space_group_symop_operation_xyz
  'x, y, z'

loop_
  _atom_site_type_symbol
  _atom_site_label
  _atom_site_symmetry_multiplicity
  _atom_site_fract_x
  _atom_site_fract_y
  _atom_site_fract_z
  _atom_site_occupancy
  Ti  Ti1       1.0  0.6698123699507624  0.5591412291542771  0.03737004181030456  1.0000
  Si  Si1       1.0  0.3360752180267293  0.8923175356885719  0.7791018198184247  1.0000
  O   O1        1.0  0.3355638533694729  0.8925214836864076  0.5251379380452477  1.0000
  O   O2        1.0  0.34022657690201685  0.3945687552711434  0.22438769166247755  1.0000
  Ca  Ca1       1.0  0.6698694997278196  0.5589620501523258  0.537411906950628  1.0000
  O   O3        1.0  0.5050901956962308  0.22935125338224188  0.8501540215403236  1.0000
  O   O4        1.0  0.003880754425917273  0.22624136427319383  0.5495233469908354  1.0000
  O   O5        1.0  0.9994162744402809  0.7236967613331167  0.8503126176494246  1.0000
  O   O6        1.0  0.8345638372734023  0.3944167364240177  0.2247349201774742  1.0000
  Si  Si2       1.0  0.0035520838299601927  0.22594198161416987  0.2955683344156904  1.0000
  O   O7        1.0  0.505121300572198  0.7238176283099247  0.8497332868337535  1.0000
  O   O8        1.0  0.8345206510575494  0.8888737266172299  0.22461117245745993  1.0000
