data_image0
_chemical_formula_structural       CaTiSiO3CaO3
_chemical_formula_sum              "Ca2 Ti1 Si1 O6"
_cell_length_a       5.292187192279947
_cell_length_b       5.2923387474458226
_cell_length_c       5.294567108154297
_cell_angle_alpha    60.01072549553828
_cell_angle_beta     59.99677783440006
_cell_angle_gamma    59.99881938343093

_space_group_name_H-M_alt    "P 1"
_space_group_IT_number       1

loop_
  _space_group_symop_operation_xyz
  'x, y, z'

loop_
  _atom_site_type_symbol
  _atom_site_label
  _atom_site_symmetry_multiplicity
  _atom_site_fract_x
  _atom_site_fract_y
  _atom_site_fract_z
  _atom_site_occupancy
  Ca  Ca1       1.0  0.12226957575189339  0.45911991033539634  0.8311136686488602  1.0000
  Ti  Ti1       1.0  0.8722890035911387  0.20925398955024008  0.5806110013760131  1.0000
  Si  Si1       1.0  0.3722752619141196  0.7092419666019594  0.08062079265580985  1.0000
  O   O1        1.0  0.13297602233017142  0.9486273450427479  0.3196576074060453  1.0000
  O   O2        1.0  0.6112499933697911  0.9487410387922224  0.8412951465068653  1.0000
  O   O3        1.0  0.6116310091952163  0.46985481037007765  0.8416760489683401  1.0000
  Ca  Ca2       1.0  0.6221477704021761  0.9592587138729877  0.33033124332478814  1.0000
  O   O4        1.0  0.13327098974205678  0.46988639906244845  0.31984560464309625  1.0000
  O   O5        1.0  0.13309098982146672  0.9479613353917155  0.8414991978179948  1.0000
  O   O6        1.0  0.6114964059139626  0.47059120757430956  0.31974688582552563  1.0000
