data_image0
_chemical_formula_structural       CaOSiO3TiO2SiO2
_chemical_formula_sum              "Ca1 O8 Si2 Ti1"
_cell_length_a       5.642548495796385
_cell_length_b       5.642197617874579
_cell_length_c       5.659294128417969
_cell_angle_alpha    106.59823655654837
_cell_angle_beta     106.62973760399801
_cell_angle_gamma    115.16757271953986

_space_group_name_H-M_alt    "P 1"
_space_group_IT_number       1

loop_
  _space_group_symop_operation_xyz
  'x, y, z'

loop_
  _atom_site_type_symbol
  _atom_site_label
  _atom_site_symmetry_multiplicity
  _atom_site_fract_x
  _atom_site_fract_y
  _atom_site_fract_z
  _atom_site_occupancy
  Ca  Ca1       1.0  0.5028053740669044  0.03485559536338112  0.039755645722273095  1.0000
  O   O1        1.0  0.8949760998124239  0.04898368470891715  0.3132756129830769  1.0000
  Si  Si1       1.0  0.9821467071579856  0.4675921052264374  0.9565392787793084  1.0000
  O   O2        1.0  0.8495218183341645  0.5223106435737179  0.18120586782435996  1.0000
  O   O3        1.0  0.25482508814752314  0.04065673295032702  0.6524447628418021  1.0000
  O   O4        1.0  0.34612450395846656  0.6376727457789255  0.15841454903217528  1.0000
  Ti  Ti1       1.0  0.8202927870123636  0.7673790065960623  0.48144166786492015  1.0000
  O   O5        1.0  0.46173544877005773  0.3532525007880145  0.3743448852904889  1.0000
  O   O6        1.0  0.35194420636311835  0.5758316979524186  0.7619955491813344  1.0000
  Si  Si2       1.0  0.25129988437807443  0.26117169187901873  0.5186195692097639  1.0000
  O   O7        1.0  0.8196604664762815  0.10894003162916631  0.7683428190532849  1.0000
  O   O8        1.0  0.9567710749657217  0.667374110604401  0.7971538152726003  1.0000
