data_image0
_chemical_formula_structural       OTiSiCaO5Ca
_chemical_formula_sum              "O6 Ti1 Si1 Ca2"
_cell_length_a       5.545465084301183
_cell_length_b       5.416324377982742
_cell_length_c       6.392167568206787
_cell_angle_alpha    56.58147436003259
_cell_angle_beta     88.78698815453966
_cell_angle_gamma    83.30606923065973

_space_group_name_H-M_alt    "P 1"
_space_group_IT_number       1

loop_
  _space_group_symop_operation_xyz
  'x, y, z'

loop_
  _atom_site_type_symbol
  _atom_site_label
  _atom_site_symmetry_multiplicity
  _atom_site_fract_x
  _atom_site_fract_y
  _atom_site_fract_z
  _atom_site_occupancy
  O   O1        1.0  0.0689765691497989  0.6783666983159662  0.2022041034506225  1.0000
  Ti  Ti1       1.0  0.2677965773372611  0.5616864870216884  0.04592162330056565  1.0000
  Si  Si1       1.0  0.6068724150310685  0.02315770502223181  0.5890328311246888  1.0000
  Ca  Ca1       1.0  0.06151439938824296  0.39145268510158837  0.6167856114797058  1.0000
  O   O2        1.0  0.12556632953824148  0.3252874254164379  0.9915371276435225  1.0000
  O   O3        1.0  0.35045813690282945  0.9040688825399046  0.7362067055694315  1.0000
  O   O4        1.0  0.5248962452975586  0.3090985759885424  0.28795162156657744  1.0000
  O   O5        1.0  0.7740086883001714  0.7876631580934547  0.5490621050235721  1.0000
  O   O6        1.0  0.7383579299489521  0.1424695798365645  0.7349455927585093  1.0000
  Ca  Ca2       1.0  0.7920947605118983  0.06608199779356963  0.12173114744517366  1.0000
