data_image0
_chemical_formula_structural       OCaOTiOSiO5Si
_chemical_formula_sum              "O8 Ca1 Ti1 Si2"
_cell_length_a       5.645869829056419
_cell_length_b       5.646731583165351
_cell_length_c       5.647646427154541
_cell_angle_alpha    106.63438027938429
_cell_angle_beta     106.46870093125621
_cell_angle_gamma    115.31436844472861

_space_group_name_H-M_alt    "P 1"
_space_group_IT_number       1

loop_
  _space_group_symop_operation_xyz
  'x, y, z'

loop_
  _atom_site_type_symbol
  _atom_site_label
  _atom_site_symmetry_multiplicity
  _atom_site_fract_x
  _atom_site_fract_y
  _atom_site_fract_z
  _atom_site_occupancy
  O   O1        1.0  0.5863523903582444  0.3662399288022593  0.41761275282310767  1.0000
  Ca  Ca1       1.0  0.8346655976622795  0.35942543354139356  0.8039809186644448  1.0000
  O   O2        1.0  0.14960759185591957  0.4337865453753395  0.5331391963616724  1.0000
  Ti  Ti1       1.0  0.15211425014362664  0.09136489077885625  0.2482834230808872  1.0000
  O   O3        1.0  0.6759646362104964  0.9619069076544592  0.9206578729432042  1.0000
  Si  Si1       1.0  0.3122292397859093  0.7928370409027586  0.7203955717016155  1.0000
  O   O4        1.0  0.181127777129852  0.8477528427046291  0.946775938213907  1.0000
  O   O5        1.0  0.7914847135284627  0.6768160329579859  0.13652591572055336  1.0000
  O   O6        1.0  0.22571017341198016  0.37324067880512507  0.07803823619127652  1.0000
  O   O7        1.0  0.28725541333529864  0.9928555957181787  0.5614900877312344  1.0000
  O   O8        1.0  0.6840683398298684  0.9006003977699705  0.526680127491448  1.0000
  Si  Si2       1.0  0.581879289643997  0.5853348675322608  0.2823614964120534  1.0000
