data_image0
_chemical_formula_structural       SiTiCaO8Si
_chemical_formula_sum              "Si2 Ti1 Ca1 O8"
_cell_length_a       5.637441112250256
_cell_length_b       5.636033690367398
_cell_length_c       5.641949653625488
_cell_angle_alpha    106.55485715227681
_cell_angle_beta     106.6202016307057
_cell_angle_gamma    115.39418962129449

_space_group_name_H-M_alt    "P 1"
_space_group_IT_number       1

loop_
  _space_group_symop_operation_xyz
  'x, y, z'

loop_
  _atom_site_type_symbol
  _atom_site_label
  _atom_site_symmetry_multiplicity
  _atom_site_fract_x
  _atom_site_fract_y
  _atom_site_fract_z
  _atom_site_occupancy
  Si  Si1       1.0  0.9201323371482018  0.6124186095851235  0.3400792157020349  1.0000
  Ti  Ti1       1.0  0.1686823928649092  0.3623165398834397  0.8402765646079459  1.0000
  Ca  Ca1       1.0  0.4198610514836679  0.1123719803361233  0.3399093395656607  1.0000
  O   O1        1.0  0.08038273598675034  0.5734726765007213  0.140528470639427  1.0000
  O   O2        1.0  0.4841029002060113  0.501769494715026  0.6665224965130451  1.0000
  O   O3        1.0  0.030800369359179534  0.048586639487298626  0.013554618263734925  1.0000
  O   O4        1.0  0.08032463047475749  0.9721513780475597  0.5389175237484682  1.0000
  O   O5        1.0  0.48401229112103394  0.8506352418914662  0.014266031227193549  1.0000
  O   O6        1.0  0.9590820842295111  0.4520786350640959  0.5396751230164035  1.0000
  O   O7        1.0  0.6817318676912815  0.048414549268369134  0.6654103834698042  1.0000
  O   O8        1.0  0.5602765862932912  0.4522383943630465  0.14113160914296216  1.0000
  Si  Si2       1.0  0.6702225260747202  0.8624665538255958  0.8400476657042008  1.0000
