data_image0
_chemical_formula_structural       CaTiOCaOSiO4
_chemical_formula_sum              "Ca2 Ti1 O6 Si1"
_cell_length_a       5.259230225081918
_cell_length_b       5.266807417048493
_cell_length_c       5.297243595123291
_cell_angle_alpha    119.80242189063223
_cell_angle_beta     119.79601501476736
_cell_angle_gamma    89.94615273732906

_space_group_name_H-M_alt    "P 1"
_space_group_IT_number       1

loop_
  _space_group_symop_operation_xyz
  'x, y, z'

loop_
  _atom_site_type_symbol
  _atom_site_label
  _atom_site_symmetry_multiplicity
  _atom_site_fract_x
  _atom_site_fract_y
  _atom_site_fract_z
  _atom_site_occupancy
  Ca  Ca1       1.0  0.7004965137251234  0.01916009075264625  0.06993577885042994  1.0000
  Ti  Ti1       1.0  0.9503966416700957  0.7689200418783291  0.569764913888828  1.0000
  O   O1        1.0  0.17288134667795835  0.06879688704158711  0.5693610407471027  1.0000
  Ca  Ca2       1.0  0.20048865578927966  0.5186483369756852  0.06968433553117134  1.0000
  O   O2        1.0  0.7282461068592693  0.4692635890294481  0.5704735724419958  1.0000
  Si  Si1       1.0  0.4505111910238265  0.2688839368928093  0.5698082300749656  1.0000
  O   O3        1.0  0.25043749367053714  0.5461192725340692  0.5700292987100354  1.0000
  O   O4        1.0  0.6899980042040333  0.5079860366032086  0.04915596448256797  1.0000
  O   O5        1.0  0.6501413383226421  0.99129826611804  0.5695091089947741  1.0000
  O   O6        1.0  0.2110268826092818  0.029706147146552977  0.09044430596708236  1.0000
