data_image0
_chemical_formula_structural       O3CaOSi2O3TiO
_chemical_formula_sum              "O8 Ca1 Si2 Ti1"
_cell_length_a       5.64670796102034
_cell_length_b       5.643325638842579
_cell_length_c       5.650684356689452
_cell_angle_alpha    106.37299160260231
_cell_angle_beta     106.50774927074389
_cell_angle_gamma    115.43212204062512

_space_group_name_H-M_alt    "P 1"
_space_group_IT_number       1

loop_
  _space_group_symop_operation_xyz
  'x, y, z'

loop_
  _atom_site_type_symbol
  _atom_site_label
  _atom_site_symmetry_multiplicity
  _atom_site_fract_x
  _atom_site_fract_y
  _atom_site_fract_z
  _atom_site_occupancy
  O   O1        1.0  0.623533954043729  0.4945223456616521  0.4627796256357988  1.0000
  O   O2        1.0  0.7963380258150348  0.8871853798893793  0.2765788405194592  1.0000
  O   O3        1.0  0.10565359945000857  0.08776256601035647  0.9919332089959932  1.0000
  Ca  Ca1       1.0  0.11327668243290116  0.8414483136058434  0.6054354101105721  1.0000
  O   O4        1.0  0.5682849821152002  0.9827970623072801  0.880415602064448  1.0000
  Si  Si1       1.0  0.6806869277030918  0.36793457283103925  0.6924038362744045  1.0000
  Si  Si2       1.0  0.8858222349902891  0.09306797409372095  0.12619939821359766  1.0000
  O   O5        1.0  0.5146267391245916  0.0041640203129913456  0.497462866489847  1.0000
  O   O6        1.0  0.09563396363068655  0.44982386116223116  0.32657999545577676  1.0000
  O   O7        1.0  0.4793407271104781  0.3899174947563471  0.8506089616438828  1.0000
  Ti  Ti1       1.0  0.3831893580923963  0.522048530816717  0.15888749806685543  1.0000
  O   O8        1.0  0.03955963060675012  0.530439242359441  0.8777880926844023  1.0000
