data_image0
_chemical_formula_structural       TiCaSiTiSiO
_chemical_formula_sum              "Ti2 Ca1 Si2 O1"
_cell_length_a       4.093941687070333
_cell_length_b       4.09174543368248
_cell_length_c       5.766648292541504
_cell_angle_alpha    90.00957159944984
_cell_angle_beta     90.03907801625297
_cell_angle_gamma    90.02149711030165

_space_group_name_H-M_alt    "P 1"
_space_group_IT_number       1

loop_
  _space_group_symop_operation_xyz
  'x, y, z'

loop_
  _atom_site_type_symbol
  _atom_site_label
  _atom_site_symmetry_multiplicity
  _atom_site_fract_x
  _atom_site_fract_y
  _atom_site_fract_z
  _atom_site_occupancy
  Ti  Ti1       1.0  0.8327459428783088  0.043077297171160586  0.6886614262543781  1.0000
  Ca  Ca1       1.0  0.3326665592135259  0.043269589769157395  0.18854802542913646  1.0000
  Si  Si1       1.0  0.8326589944751862  0.5433491799513094  0.9859641610034997  1.0000
  Ti  Ti2       1.0  0.33279053190979  0.5431558431979928  0.6887920762418724  1.0000
  Si  Si2       1.0  0.8327257641928867  0.5432520443406204  0.39167029270956594  1.0000
  O   O1        1.0  0.3327528103888918  0.04319426767027911  0.6881863513037011  1.0000
