data_image0
_chemical_formula_structural       TiCaO3SiO3TiO2
_chemical_formula_sum              "Ti2 Ca1 O8 Si1"
_cell_length_a       5.750739220920991
_cell_length_b       5.756554169473957
_cell_length_c       5.7612762451171875
_cell_angle_alpha    107.42035781616349
_cell_angle_beta     107.33599916328649
_cell_angle_gamma    113.61271917999643

_space_group_name_H-M_alt    "P 1"
_space_group_IT_number       1

loop_
  _space_group_symop_operation_xyz
  'x, y, z'

loop_
  _atom_site_type_symbol
  _atom_site_label
  _atom_site_symmetry_multiplicity
  _atom_site_fract_x
  _atom_site_fract_y
  _atom_site_fract_z
  _atom_site_occupancy
  Ti  Ti1       1.0  0.5745597691890166  0.4212966367867366  0.39483049676314586  1.0000
  Ca  Ca1       1.0  0.3630792475024635  0.7085094259967688  0.8965238250313529  1.0000
  O   O1        1.0  0.14464700478808093  0.8118769713428322  0.5757541593816651  1.0000
  O   O2        1.0  0.832030481694421  0.38784268736400623  0.6860412736423284  1.0000
  O   O3        1.0  0.7852911670816218  0.8078932391771892  0.21975936346301314  1.0000
  Si  Si1       1.0  0.13327102681457834  0.9796157296003289  0.3961288330686086  1.0000
  O   O4        1.0  0.30692539617206455  0.9781857861627314  0.2204223580657413  1.0000
  O   O5        1.0  0.25022705602581374  0.38753171530251956  0.10442964640945793  1.0000
  O   O6        1.0  0.6964885224828281  0.26518593221005543  0.11866749365582617  1.0000
  Ti  Ti2       1.0  0.8632527275374621  0.20993166622148626  0.8952390508350472  1.0000
  O   O7        1.0  0.3057982901819995  0.3284081992581812  0.5700375462956069  1.0000
  O   O8        1.0  0.6965025142710727  0.8199926656267544  0.6735378332282144  1.0000
