data_image0
_chemical_formula_structural       Ca2TiOTiSiOSi
_chemical_formula_sum              "Ca2 Ti2 O2 Si2"
_cell_length_a       4.195509628713281
_cell_length_b       4.201131287374132
_cell_length_c       8.78747844696045
_cell_angle_alpha    90.03744560164799
_cell_angle_beta     90.01746729928796
_cell_angle_gamma    90.05918608906761

_space_group_name_H-M_alt    "P 1"
_space_group_IT_number       1

loop_
  _space_group_symop_operation_xyz
  'x, y, z'

loop_
  _atom_site_type_symbol
  _atom_site_label
  _atom_site_symmetry_multiplicity
  _atom_site_fract_x
  _atom_site_fract_y
  _atom_site_fract_z
  _atom_site_occupancy
  Ca  Ca1       1.0  0.4855273098103486  0.363643650216252  0.8216630992564854  1.0000
  Ca  Ca2       1.0  0.9854911614271591  0.8633868123387466  0.6253238982787256  1.0000
  Ti  Ti1       1.0  0.9856145276369982  0.36373420910520265  0.2213309832879837  1.0000
  O   O1        1.0  0.9855288596034298  0.36362732623023347  0.7229479508852108  1.0000
  Ti  Ti2       1.0  0.485541853830021  0.8637150940159398  0.2221229019751779  1.0000
  Si  Si1       1.0  0.4857284303563379  0.3640019352130043  0.39844089435234215  1.0000
  O   O2        1.0  0.4855531069657228  0.8634440493526585  0.7243089445248125  1.0000
  Si  Si2       1.0  0.9854104653737922  0.8634148944729287  0.04497758744557068  1.0000
