data_image0
_chemical_formula_structural       OCaSiOTiO3SiO
_chemical_formula_sum              "O6 Ca1 Si2 Ti1"
_cell_length_a       4.503091719357268
_cell_length_b       5.539771244707709
_cell_length_c       5.669904708862306
_cell_angle_alpha    98.8574118486785
_cell_angle_beta     87.55093579546299
_cell_angle_gamma    63.51962540045622

_space_group_name_H-M_alt    "P 1"
_space_group_IT_number       1

loop_
  _space_group_symop_operation_xyz
  'x, y, z'

loop_
  _atom_site_type_symbol
  _atom_site_label
  _atom_site_symmetry_multiplicity
  _atom_site_fract_x
  _atom_site_fract_y
  _atom_site_fract_z
  _atom_site_occupancy
  O   O1        1.0  0.5236829963621458  0.9635889178008604  0.2520852177207004  1.0000
  Ca  Ca1       1.0  0.01256772481971715  0.43411630301747073  0.763452224841491  1.0000
  Si  Si1       1.0  0.72716420293948  0.9345450152535312  0.49834979582761674  1.0000
  O   O2        1.0  0.06889808524173617  0.652417017920112  0.4595847898491453  1.0000
  Ti  Ti1       1.0  0.5162657136379467  0.4042336221349163  0.252590446320104  1.0000
  O   O3        1.0  0.9666482124485688  0.19297331953701913  0.04768912620529249  1.0000
  O   O4        1.0  0.5179566259362508  0.9319114983174195  0.7532463352392235  1.0000
  O   O5        1.0  0.33761830229597284  0.627648807743516  0.9816323872531336  1.0000
  Si  Si2       1.0  0.32353243237477547  0.9271619844681882  0.015703409044149387  1.0000
  O   O6        1.0  0.7408820905817383  0.2242754806923312  0.5411434443224121  1.0000
