data_image0
_chemical_formula_structural       CaSiTiO
_chemical_formula_sum              "Ca1 Si1 Ti1 O1"
_cell_length_a       3.13965039161922
_cell_length_b       3.1400025978565607
_cell_length_c       7.297464370727538
_cell_angle_alpha    77.6183799784846
_cell_angle_beta     77.55710512554877
_cell_angle_gamma    60.04446051204997

_space_group_name_H-M_alt    "P 1"
_space_group_IT_number       1

loop_
  _space_group_symop_operation_xyz
  'x, y, z'

loop_
  _atom_site_type_symbol
  _atom_site_label
  _atom_site_symmetry_multiplicity
  _atom_site_fract_x
  _atom_site_fract_y
  _atom_site_fract_z
  _atom_site_occupancy
  Ca  Ca1       1.0  0.344179416434925  0.9667399190188093  0.8471769110445506  1.0000
  Si  Si1       1.0  0.8996977929691617  0.5214789539769868  0.1827291469618527  1.0000
  Ti  Ti1       1.0  0.14281524145295035  0.7651921059740494  0.4521484514355302  1.0000
  O   O1        1.0  0.747414405251513  0.36982597808915296  0.6378110560141662  1.0000
