data_image0
_chemical_formula_structural       SiCaO4TiOSiO
_chemical_formula_sum              "Si2 Ca1 O6 Ti1"
_cell_length_a       4.932959985125706
_cell_length_b       4.933316051505564
_cell_length_c       5.613685607910156
_cell_angle_alpha    63.888135291060266
_cell_angle_beta     63.893528081528316
_cell_angle_gamma    59.79738558705507

_space_group_name_H-M_alt    "P 1"
_space_group_IT_number       1

loop_
  _space_group_symop_operation_xyz
  'x, y, z'

loop_
  _atom_site_type_symbol
  _atom_site_label
  _atom_site_symmetry_multiplicity
  _atom_site_fract_x
  _atom_site_fract_y
  _atom_site_fract_z
  _atom_site_occupancy
  Si  Si1       1.0  0.19092875688530436  0.9214474603171602  0.21782235956967097  1.0000
  Ca  Ca1       1.0  0.713119639770936  0.4451324768611092  0.6494812679427302  1.0000
  O   O1        1.0  0.3683862405139403  0.5173996332616235  0.4529118210833521  1.0000
  O   O2        1.0  0.9110172663498162  0.2793801325271509  0.03809971033108611  1.0000
  O   O3        1.0  0.5490941536891938  0.022132517873480223  0.038385397975919895  1.0000
  O   O4        1.0  0.7872185312548755  0.9128714737220804  0.45291625515920264  1.0000
  Ti  Ti1       1.0  0.9953268985530962  0.7256936368630654  0.8039625916110904  1.0000
  O   O5        1.0  0.2917535470784968  0.6415390938320592  0.038485242054976214  1.0000
  Si  Si2       1.0  0.5085724136428753  0.23943990334526297  0.26376087599923126  1.0000
  O   O6        1.0  0.18215750956007612  0.09875494878107612  0.4530604327780157  1.0000
