data_image0
_chemical_formula_structural       CaOSi2
_chemical_formula_sum              "Ca1 O1 Si2"
_cell_length_a       3.8096548137305253
_cell_length_b       3.8123189722187756
_cell_length_c       5.685229301452636
_cell_angle_alpha    89.95600242570049
_cell_angle_beta     89.86040708625839
_cell_angle_gamma    59.9353939007859

_space_group_name_H-M_alt    "P 1"
_space_group_IT_number       1

loop_
  _space_group_symop_operation_xyz
  'x, y, z'

loop_
  _atom_site_type_symbol
  _atom_site_label
  _atom_site_symmetry_multiplicity
  _atom_site_fract_x
  _atom_site_fract_y
  _atom_site_fract_z
  _atom_site_occupancy
  Ca  Ca1       1.0  0.37055397139416846  0.6736005137047578  0.42057622301627035  1.0000
  O   O1        1.0  0.7038538315322246  0.00692876097151754  0.2857506297871645  1.0000
  Si  Si1       1.0  0.7038420536659409  0.007250423699289519  0.988480475701484  1.0000
  Si  Si2       1.0  0.03729249080755323  0.34042947030444987  0.8228497160161012  1.0000
