data_image0
_chemical_formula_structural       Ca2OSiO4TiO2
_chemical_formula_sum              "Ca2 O7 Si1 Ti1"
_cell_length_a       6.0468400661012245
_cell_length_b       5.969316725112107
_cell_length_c       6.192713737487794
_cell_angle_alpha    98.17681808739795
_cell_angle_beta     113.02401043204385
_cell_angle_gamma    92.84558224599859

_space_group_name_H-M_alt    "P 1"
_space_group_IT_number       1

loop_
  _space_group_symop_operation_xyz
  'x, y, z'

loop_
  _atom_site_type_symbol
  _atom_site_label
  _atom_site_symmetry_multiplicity
  _atom_site_fract_x
  _atom_site_fract_y
  _atom_site_fract_z
  _atom_site_occupancy
  Ca  Ca1       1.0  0.7901247194022974  0.8450978397042616  0.041605427946974215  1.0000
  Ca  Ca2       1.0  0.7161880367523498  0.1930839784107691  0.504754614753562  1.0000
  O   O1        1.0  0.4513507991474607  0.45255218294487026  0.3649672621160549  1.0000
  Si  Si1       1.0  0.4476055990159139  0.7378518504242255  0.4002164551983826  1.0000
  O   O2        1.0  0.14289642054507778  0.7190432729640639  0.30687215603837814  1.0000
  O   O3        1.0  0.060319704282593964  0.2956631158737008  0.8661436437666643  1.0000
  O   O4        1.0  0.5423353121915219  0.8539505796731279  0.22560131201410522  1.0000
  O   O5        1.0  0.866214306127583  0.44240613887290653  0.874029962932498  1.0000
  Ti  Ti1       1.0  0.10130655308705314  0.397435527027698  0.1861121481561308  1.0000
  O   O6        1.0  0.5961347459880961  0.8826394601215645  0.6646753454970031  1.0000
  O   O7        1.0  0.9451282676794999  0.20611940389727945  0.28186196711778083  1.0000
