data_image0
_chemical_formula_structural       CaTiSi2OSiTiO4CaO4CaO3
_chemical_formula_sum              "Ca3 Ti2 Si3 O12"
_cell_length_a       6.070347077880384
_cell_length_b       7.884570236488849
_cell_length_c       7.947588443756104
_cell_angle_alpha    74.24166323539468
_cell_angle_beta     67.70013896417225
_cell_angle_gamma    69.22887754700339

_space_group_name_H-M_alt    "P 1"
_space_group_IT_number       1

loop_
  _space_group_symop_operation_xyz
  'x, y, z'

loop_
  _atom_site_type_symbol
  _atom_site_label
  _atom_site_symmetry_multiplicity
  _atom_site_fract_x
  _atom_site_fract_y
  _atom_site_fract_z
  _atom_site_occupancy
  Ca  Ca1       1.0  0.15851406534220622  0.3540226640766092  0.3315378788088383  1.0000
  Ti  Ti1       1.0  0.9601023855722698  0.7552470331141325  0.31587900195960394  1.0000
  Si  Si1       1.0  0.7842318424750239  0.18175348111430392  0.33863133726423866  1.0000
  Si  Si2       1.0  0.16207558227333668  0.7070340422338045  0.9012271831632176  1.0000
  O   O1        1.0  0.5384491623599004  0.3344720573845525  0.3077993585139121  1.0000
  Si  Si3       1.0  0.12173564743398745  0.29536219432319016  0.938443045251351  1.0000
  Ti  Ti2       1.0  0.7779995435127718  0.12869057374107487  0.790537570378481  1.0000
  O   O2        1.0  0.04745501849986077  0.19889614565188518  0.16088744392320983  1.0000
  O   O3        1.0  0.753211535037691  0.9780560385633241  0.3831736671108314  1.0000
  O   O4        1.0  0.41973058943115465  0.6795681979675197  0.7338891336297747  1.0000
  O   O5        1.0  0.8392876683287491  0.2266675145808925  0.5100595122268473  1.0000
  Ca  Ca2       1.0  0.7663549956878766  0.6495260023014627  0.7874577379271611  1.0000
  O   O6        1.0  0.0643053480777571  0.5175554091951574  0.9503909131087529  1.0000
  O   O7        1.0  0.20994531422210272  0.7331998226874343  0.08068428244490204  1.0000
  O   O8        1.0  0.9254879378826679  0.29878496666792814  0.841083349531585  1.0000
  O   O9        1.0  0.08376332161044242  0.6157225210334609  0.502921667966157  1.0000
  Ca  Ca3       1.0  0.477231801339118  0.5114797052984004  0.52186387109639  1.0000
  O   O10       1.0  0.4137308920058017  0.22782285771278188  0.823920653950755  1.0000
  O   O11       1.0  0.9214174055028228  0.8638207926864274  0.8482921115559208  1.0000
  O   O12       1.0  0.7964878451669615  0.610874742984588  0.31847889419486225  1.0000
