data_image0
_chemical_formula_structural       CaTiCaTiO3SiO2SiO4
_chemical_formula_sum              "Ca2 Ti2 O9 Si2"
_cell_length_a       5.584916426333403
_cell_length_b       5.603732316327223
_cell_length_c       7.058384418487549
_cell_angle_alpha    104.52010850183854
_cell_angle_beta     103.92640369043401
_cell_angle_gamma    105.567676173847

_space_group_name_H-M_alt    "P 1"
_space_group_IT_number       1

loop_
  _space_group_symop_operation_xyz
  'x, y, z'

loop_
  _atom_site_type_symbol
  _atom_site_label
  _atom_site_symmetry_multiplicity
  _atom_site_fract_x
  _atom_site_fract_y
  _atom_site_fract_z
  _atom_site_occupancy
  Ca  Ca1       1.0  0.775264421228865  0.8822201932777903  0.7138030206301508  1.0000
  Ti  Ti1       1.0  0.0820904380030914  0.5533759660548024  0.9555622803728965  1.0000
  Ca  Ca2       1.0  0.4000641825589681  0.22244033698105556  0.19728888632299138  1.0000
  Ti  Ti2       1.0  0.11839587050559665  0.6102830644538975  0.46006150855190747  1.0000
  O   O1        1.0  0.12720297246723355  0.45029681098605145  0.19998608566268525  1.0000
  O   O2        1.0  0.7129391044037927  0.2966280027582799  0.8565243019235046  1.0000
  O   O3        1.0  0.455009648478806  0.7977139967323513  0.06246737471098922  1.0000
  Si  Si1       1.0  0.772398056952149  0.8961204950959887  0.22051539797029596  1.0000
  O   O4        1.0  0.40962641342749356  0.45654960806821626  0.5751390869800616  1.0000
  O   O5        1.0  0.9550559700976957  0.844621019444479  0.0583119078814862  1.0000
  Si  Si2       1.0  0.41940002984965025  0.2535707246772748  0.7079574684670403  1.0000
  O   O6        1.0  0.7827846894700077  0.6657781502470246  0.34119704320872557  1.0000
  O   O7        1.0  0.013124164296329979  0.5906454244658199  0.6884227724135997  1.0000
  O   O8        1.0  0.2098558707468962  0.23624737253850614  0.837947267601235  1.0000
  O   O9        1.0  0.3527408617462041  0.9537657278123801  0.537412993711723  1.0000
