data_image0
_chemical_formula_structural       TiOSiCaSiO3CaO2SiTiO3SiO3
_chemical_formula_sum              "Ti2 O12 Si4 Ca2"
_cell_length_a       5.465292090793559
_cell_length_b       5.747393679106121
_cell_length_c       8.942066192626953
_cell_angle_alpha    88.85632148861679
_cell_angle_beta     93.07496050537266
_cell_angle_gamma    105.22610538405823

_space_group_name_H-M_alt    "P 1"
_space_group_IT_number       1

loop_
  _space_group_symop_operation_xyz
  'x, y, z'

loop_
  _atom_site_type_symbol
  _atom_site_label
  _atom_site_symmetry_multiplicity
  _atom_site_fract_x
  _atom_site_fract_y
  _atom_site_fract_z
  _atom_site_occupancy
  Ti  Ti1       1.0  0.2339002702823269  0.3351744936926806  0.665949073504967  1.0000
  O   O1        1.0  0.5421461159145159  0.36744869831816296  0.5398212542656177  1.0000
  Si  Si1       1.0  0.3273758419590219  0.7878808078375765  0.9103069077027479  1.0000
  Ca  Ca1       1.0  0.6565595596421894  0.9958601934250803  0.6122008413928315  1.0000
  Si  Si2       1.0  0.036345019037835574  0.05297505623006735  0.9418902681476431  1.0000
  O   O2        1.0  0.6506590195604764  0.31304768950892725  0.25186637909753845  1.0000
  O   O3        1.0  0.027700590057069284  0.49624030949643505  0.4920968339967817  1.0000
  O   O4        1.0  0.009871812808963444  0.7523848558732755  0.923550701564409  1.0000
  Ca  Ca2       1.0  0.7098058086034825  0.4164484353262095  0.0037066209283004754  1.0000
  O   O5        1.0  0.386671982797053  0.871566874381794  0.3909809256392905  1.0000
  O   O6        1.0  0.07856340713892455  0.9789874875930666  0.5877028086562419  1.0000
  Si  Si3       1.0  0.11280207702244542  0.8008006835919019  0.45816525653992163  1.0000
  Ti  Ti2       1.0  0.6317070581639553  0.9606756126481645  0.22160844371368532  1.0000
  O   O7        1.0  0.9476698105487644  0.11848920438963434  0.09859283402942026  1.0000
  O   O8        1.0  0.40421939829748343  0.6932100037462984  0.7552939832623305  1.0000
  O   O9        1.0  0.4767019400823293  0.7041427142003616  0.05379528019387644  1.0000
  Si  Si4       1.0  0.7285574716374025  0.45726926612798635  0.40623649729860123  1.0000
  O   O10       1.0  0.9171859427393936  0.2007850386064781  0.8126443921131004  1.0000
  O   O11       1.0  0.8331790175997639  0.7527181495702282  0.3531500349895124  1.0000
  O   O12       1.0  0.35619681592152447  0.09921009902719582  0.9117200989769  1.0000
