data_image0
_chemical_formula_structural       OSiCaTi
_chemical_formula_sum              "O1 Si1 Ca1 Ti1"
_cell_length_a       2.967389729047283
_cell_length_b       3.458638214007447
_cell_length_c       6.735870361328125
_cell_angle_alpha    104.910057644447
_cell_angle_beta     102.69885351972773
_cell_angle_gamma    90.00949661071031

_space_group_name_H-M_alt    "P 1"
_space_group_IT_number       1

loop_
  _space_group_symop_operation_xyz
  'x, y, z'

loop_
  _atom_site_type_symbol
  _atom_site_label
  _atom_site_symmetry_multiplicity
  _atom_site_fract_x
  _atom_site_fract_y
  _atom_site_fract_z
  _atom_site_occupancy
  O   O1        1.0  0.1712822429187232  0.7993402578923814  0.29862664179837234  1.0000
  Si  Si1       1.0  0.3897474161545108  0.5180086909562188  0.7362883707336237  1.0000
  Ca  Ca1       1.0  0.052623138755819726  0.1798738464189382  0.059865673390536  1.0000
  Ti  Ti1       1.0  0.775090506242172  0.9031296382858782  0.5065766398318723  1.0000
