data_image0
_chemical_formula_structural       Si2CaOTiCa2OTi2O10
_chemical_formula_sum              "Si2 Ca3 O12 Ti3"
_cell_length_a       5.681476024994493
_cell_length_b       6.151058511485873
_cell_length_c       8.191126823425293
_cell_angle_alpha    95.4834766709374
_cell_angle_beta     93.23739611680686
_cell_angle_gamma    80.83836244478775

_space_group_name_H-M_alt    "P 1"
_space_group_IT_number       1

loop_
  _space_group_symop_operation_xyz
  'x, y, z'

loop_
  _atom_site_type_symbol
  _atom_site_label
  _atom_site_symmetry_multiplicity
  _atom_site_fract_x
  _atom_site_fract_y
  _atom_site_fract_z
  _atom_site_occupancy
  Si  Si1       1.0  0.4398043217066779  0.19539480658305378  0.608372933702991  1.0000
  Si  Si2       1.0  0.7528883272831347  0.7815782174397633  0.6002115203222782  1.0000
  Ca  Ca1       1.0  0.3679831906781933  0.27072863427463567  0.16302647852783425  1.0000
  O   O1        1.0  0.6522112829885895  0.9510565445973256  0.09242599045326054  1.0000
  Ti  Ti1       1.0  0.871721328601654  0.14207348050561738  0.08205533346665897  1.0000
  Ca  Ca2       1.0  0.417407401374283  0.7521572631219818  0.9039180627452622  1.0000
  Ca  Ca3       1.0  0.8773951705048433  0.6703423078481998  0.22840758412533255  1.0000
  O   O2        1.0  0.9131424955479945  0.9332701433304722  0.513627127631184  1.0000
  Ti  Ti2       1.0  0.9624320252675012  0.40530951409435445  0.8559238178992803  1.0000
  Ti  Ti3       1.0  0.8622011531157127  0.25430674559332467  0.4996358842815498  1.0000
  O   O3        1.0  0.012523400576579524  0.22425075058983843  0.2810278427406946  1.0000
  O   O4        1.0  0.16676110021614576  0.3099244617430502  0.6502803263133006  1.0000
  O   O5        1.0  0.7451012570461827  0.571087563030159  0.4631619478424348  1.0000
  O   O6        1.0  0.1283789601712313  0.09190966075361572  0.9495611091368457  1.0000
  O   O7        1.0  0.8313293681485647  0.6992269921310496  0.7802612721695055  1.0000
  O   O8        1.0  0.477317924755902  0.9245830260850457  0.6368586086054745  1.0000
  O   O9        1.0  0.15913428868795745  0.5527235990750888  0.023777865401827112  1.0000
  O   O10       1.0  0.5105366035899852  0.22126419605052994  0.42181098445201837  1.0000
  O   O11       1.0  0.7003294232191035  0.4212760886621267  0.04488778057214105  1.0000
  O   O12       1.0  0.6594684690026538  0.29719941411611805  0.7157956327513314  1.0000
