data_image0
_chemical_formula_structural       O2CaSi
_chemical_formula_sum              "O2 Ca1 Si1"
_cell_length_a       3.3970450614116108
_cell_length_b       3.1466310685750876
_cell_length_c       4.955426216125488
_cell_angle_alpha    90.20475790904608
_cell_angle_beta     90.0632773694404
_cell_angle_gamma    90.00546665566742

_space_group_name_H-M_alt    "P 1"
_space_group_IT_number       1

loop_
  _space_group_symop_operation_xyz
  'x, y, z'

loop_
  _atom_site_type_symbol
  _atom_site_label
  _atom_site_symmetry_multiplicity
  _atom_site_fract_x
  _atom_site_fract_y
  _atom_site_fract_z
  _atom_site_occupancy
  O   O1        1.0  0.27687592144090345  0.8696923473380109  0.4493401647358451  1.0000
  O   O2        1.0  0.7774630704830451  0.7713496793603709  0.8611416779495308  1.0000
  Ca  Ca1       1.0  0.2774937133197339  0.27336936119241767  0.025590338820177517  1.0000
  Si  Si1       1.0  0.7770438507241224  0.7100434110938045  0.5122647333384996  1.0000
