data_image0
_chemical_formula_structural       TiSiTiOSiO2CaO6
_chemical_formula_sum              "Ti2 Si2 O9 Ca1"
_cell_length_a       5.457372081296061
_cell_length_b       5.464828316182089
_cell_length_c       8.139490127563477
_cell_angle_alpha    68.11133469476268
_cell_angle_beta     68.26508929104881
_cell_angle_gamma    71.82678675359487

_space_group_name_H-M_alt    "P 1"
_space_group_IT_number       1

loop_
  _space_group_symop_operation_xyz
  'x, y, z'

loop_
  _atom_site_type_symbol
  _atom_site_label
  _atom_site_symmetry_multiplicity
  _atom_site_fract_x
  _atom_site_fract_y
  _atom_site_fract_z
  _atom_site_occupancy
  Ti  Ti1       1.0  0.532127912736845  0.918004135773418  0.3456412568007251  1.0000
  Si  Si1       1.0  0.22324202210254732  0.6075195903572855  0.8116795278130069  1.0000
  Ti  Ti2       1.0  0.5688043814831234  0.9529180596431717  0.8839628850146733  1.0000
  O   O1        1.0  0.35386463583638633  0.7380646063571233  0.8990232535760023  1.0000
  Si  Si2       1.0  0.8775928742866707  0.26345839275727423  0.4181272907535309  1.0000
  O   O2        1.0  0.2062115432602741  0.1972363083823966  0.3734441703154496  1.0000
  O   O3        1.0  0.5506607022096136  0.9352602329705795  0.11474494579640428  1.0000
  Ca  Ca1       1.0  0.05095027135295136  0.43586279066169525  0.6143935274086654  1.0000
  O   O4        1.0  0.8946929366797156  0.6734649350977687  0.8556723727798184  1.0000
  O   O5        1.0  0.2893093076146183  0.27920253810159773  0.8552986173322941  1.0000
  O   O6        1.0  0.7463646525512364  0.13294767454179904  0.33115619122546835  1.0000
  O   O7        1.0  0.8118431309795522  0.5918114969708816  0.3740976501390671  1.0000
  O   O8        1.0  0.3265059272792969  0.7117104694045198  0.5813100391030069  1.0000
  O   O9        1.0  0.7751007628380684  0.1596183528444994  0.6484852921595479  1.0000
