data_image0
_chemical_formula_structural       CaOSiCaSiTiO4CaO3
_chemical_formula_sum              "Ca3 O8 Si2 Ti1"
_cell_length_a       5.45785690820766
_cell_length_b       5.462455075960652
_cell_length_c       6.74768829345703
_cell_angle_alpha    90.08149348990645
_cell_angle_beta     89.98255137073365
_cell_angle_gamma    114.2723353387548

_space_group_name_H-M_alt    "P 1"
_space_group_IT_number       1

loop_
  _space_group_symop_operation_xyz
  'x, y, z'

loop_
  _atom_site_type_symbol
  _atom_site_label
  _atom_site_symmetry_multiplicity
  _atom_site_fract_x
  _atom_site_fract_y
  _atom_site_fract_z
  _atom_site_occupancy
  Ca  Ca1       1.0  0.7217741031600485  0.5133765829213333  0.49863650127430453  1.0000
  O   O1        1.0  0.47235817922982926  0.7618163359858073  0.5508562439398481  1.0000
  Si  Si1       1.0  0.3675724887503607  0.8672474613974359  0.7445301103478154  1.0000
  Ca  Ca2       1.0  0.7217908475985095  0.5132178525867384  0.9912659588735933  1.0000
  Si  Si2       1.0  0.07771103835168214  0.15719951499545748  0.2454692678356864  1.0000
  Ti  Ti1       1.0  0.05563195237362954  0.17949802930071843  0.7455880144674322  1.0000
  O   O2        1.0  0.41242750075694234  0.27557249864193745  0.24491750174894847  1.0000
  O   O3        1.0  0.4728340873344479  0.7616393068023167  0.9376602917990938  1.0000
  O   O4        1.0  0.03273932351468002  0.7700682770900692  0.7450709890546393  1.0000
  O   O5        1.0  0.9593036638002387  0.8227253935536326  0.24495492518914214  1.0000
  Ca  Ca3       1.0  0.39767605229257746  0.8382278633828495  0.24437568562509485  1.0000
  O   O6        1.0  0.9788684429434228  0.2557321243979484  0.45073538982318084  1.0000
  O   O7        1.0  0.46542060935920593  0.20190897741401428  0.7448875551521574  1.0000
  O   O8        1.0  0.9784599216228637  0.2561550850748817  0.040798819261160156  1.0000
