data_image0
_chemical_formula_structural       CaTiOSiO3CaO2
_chemical_formula_sum              "Ca2 Ti1 O6 Si1"
_cell_length_a       5.289143594527683
_cell_length_b       5.290189421641419
_cell_length_c       5.290133953094482
_cell_angle_alpha    59.999279403038024
_cell_angle_beta     59.99521354511143
_cell_angle_gamma    59.98876168963635

_space_group_name_H-M_alt    "P 1"
_space_group_IT_number       1

loop_
  _space_group_symop_operation_xyz
  'x, y, z'

loop_
  _atom_site_type_symbol
  _atom_site_label
  _atom_site_symmetry_multiplicity
  _atom_site_fract_x
  _atom_site_fract_y
  _atom_site_fract_z
  _atom_site_occupancy
  Ca  Ca1       1.0  0.8023440178112536  0.8636185487812807  0.9076985832529696  1.0000
  Ti  Ti1       1.0  0.052490478392345254  0.11371746349175638  0.15765961504853243  1.0000
  O   O1        1.0  0.7918155060403678  0.8528716195376425  0.41837657359627706  1.0000
  Si  Si1       1.0  0.5525082296714797  0.6136955559248638  0.6576449748660104  1.0000
  O   O2        1.0  0.31338269768093013  0.3745800577419352  0.8968705253830278  1.0000
  O   O3        1.0  0.7918575730700623  0.37442378644260976  0.8968439841340589  1.0000
  O   O4        1.0  0.3134971845714453  0.8528725864003894  0.8968129657519545  1.0000
  Ca  Ca2       1.0  0.3025857992466585  0.36352768640067523  0.40791121751445564  1.0000
  O   O5        1.0  0.31342890478928  0.8528505875229957  0.41841113711776323  1.0000
  O   O6        1.0  0.7918565474826714  0.3745236949021131  0.41845413902689976  1.0000
