data_image0
_chemical_formula_structural       CaOTiO3SiO2
_chemical_formula_sum              "Ca1 O6 Ti1 Si1"
_cell_length_a       4.991763865954355
_cell_length_b       5.018918327589316
_cell_length_c       5.036862850189209
_cell_angle_alpha    119.80370789972524
_cell_angle_beta     90.01899043161389
_cell_angle_gamma    90.25338887028866

_space_group_name_H-M_alt    "P 1"
_space_group_IT_number       1

loop_
  _space_group_symop_operation_xyz
  'x, y, z'

loop_
  _atom_site_type_symbol
  _atom_site_label
  _atom_site_symmetry_multiplicity
  _atom_site_fract_x
  _atom_site_fract_y
  _atom_site_fract_z
  _atom_site_occupancy
  Ca  Ca1       1.0  0.7184875132048889  0.4458367637983189  0.8161339619820325  1.0000
  O   O1        1.0  0.42233873598871624  0.810774360669796  0.20674276182462692  1.0000
  Ti  Ti1       1.0  0.21854688042022752  0.1126022881947381  0.14874817615945976  1.0000
  O   O2        1.0  0.42263466017895984  0.05638410957758015  0.7902437717281561  1.0000
  O   O3        1.0  0.014803552752205964  0.05514094143611728  0.4512673161835564  1.0000
  O   O4        1.0  0.014619070864941838  0.8088977028972415  0.7891222517416199  1.0000
  Si  Si1       1.0  0.21848719173641562  0.7792153284333689  0.48315824391956275  1.0000
  O   O5        1.0  0.014202048520013177  0.4711581820318034  0.2059631963572947  1.0000
  O   O6        1.0  0.42240282196588874  0.472439637843573  0.45213265455235485  1.0000
