data_image0
_chemical_formula_structural       CaTiCaOSi
_chemical_formula_sum              "Ca2 Ti1 O1 Si1"
_cell_length_a       4.073339094525823
_cell_length_b       4.756910411749267
_cell_length_c       4.757152080535889
_cell_angle_alpha    90.0109991092548
_cell_angle_beta     90.01325990167729
_cell_angle_gamma    89.99694940996118

_space_group_name_H-M_alt    "P 1"
_space_group_IT_number       1

loop_
  _space_group_symop_operation_xyz
  'x, y, z'

loop_
  _atom_site_type_symbol
  _atom_site_label
  _atom_site_symmetry_multiplicity
  _atom_site_fract_x
  _atom_site_fract_y
  _atom_site_fract_z
  _atom_site_occupancy
  Ca  Ca1       1.0  0.46372849451426135  0.7539165970809549  0.8770876455353432  1.0000
  Ti  Ti1       1.0  0.9637634464386357  0.2539159577438167  0.8773494417320885  1.0000
  Ca  Ca2       1.0  0.4636397742364746  0.2538773740430722  0.3773007032096331  1.0000
  O   O1        1.0  0.4632729987598344  0.2536992474088241  0.8773356406891454  1.0000
  Si  Si1       1.0  0.9636046028507514  0.7536617770602541  0.37701198976267036  1.0000
