data_image0
_chemical_formula_structural       SiTiOCa2O3
_chemical_formula_sum              "Si1 Ti1 O4 Ca2"
_cell_length_a       4.805548696683904
_cell_length_b       4.794777010486727
_cell_length_c       5.922239780426025
_cell_angle_alpha    113.85591887013616
_cell_angle_beta     113.9139213260269
_cell_angle_gamma    90.26400908382823

_space_group_name_H-M_alt    "P 1"
_space_group_IT_number       1

loop_
  _space_group_symop_operation_xyz
  'x, y, z'

loop_
  _atom_site_type_symbol
  _atom_site_label
  _atom_site_symmetry_multiplicity
  _atom_site_fract_x
  _atom_site_fract_y
  _atom_site_fract_z
  _atom_site_occupancy
  Si  Si1       1.0  0.059169652435541835  0.07800406155762694  0.4472834126016196  1.0000
  Ti  Ti1       1.0  0.8107314865223838  0.3289252667842055  0.9480342959467254  1.0000
  O   O1        1.0  0.1358308463973292  0.21012232228132185  0.2558734837775436  1.0000
  Ca  Ca1       1.0  0.3098779180779513  0.8284658117459961  0.9482555707493798  1.0000
  Ca  Ca2       1.0  0.5602727855077334  0.5793222109127538  0.44950894849676964  1.0000
  O   O2        1.0  0.9277849938923954  0.3456845899262843  0.6384934491964307  1.0000
  O   O3        1.0  0.7898688274075508  0.7538746656110993  0.25550502656859864  1.0000
  O   O4        1.0  0.38186510143130237  0.0016879883665784172  0.6385983324669728  1.0000
