data_image0
_chemical_formula_structural       OCaSiO2TiO2SiO2
_chemical_formula_sum              "O7 Ca1 Si2 Ti1"
_cell_length_a       4.646453347609141
_cell_length_b       5.399302015266385
_cell_length_c       5.404937744140624
_cell_angle_alpha    102.39086710666759
_cell_angle_beta     96.82916741028559
_cell_angle_gamma    96.87007266034125

_space_group_name_H-M_alt    "P 1"
_space_group_IT_number       1

loop_
  _space_group_symop_operation_xyz
  'x, y, z'

loop_
  _atom_site_type_symbol
  _atom_site_label
  _atom_site_symmetry_multiplicity
  _atom_site_fract_x
  _atom_site_fract_y
  _atom_site_fract_z
  _atom_site_occupancy
  O   O1        1.0  0.7209099127197305  0.7690923601310786  0.13154740029289158  1.0000
  Ca  Ca1       1.0  0.9581893934148189  0.38437457820356924  0.85318693448346  1.0000
  Si  Si1       1.0  0.5381331579873923  0.8923150547743949  0.9179454195654098  1.0000
  O   O2        1.0  0.19738520289902242  0.10487324565331478  0.4670785370057034  1.0000
  O   O3        1.0  0.6852608198612473  0.4704435828245618  0.5160940659737826  1.0000
  Ti  Ti1       1.0  0.9592768669768438  0.7804126834040447  0.4562432967008715  1.0000
  O   O4        1.0  0.16428053831934533  0.5209821077030032  0.2716856525128233  1.0000
  O   O5        1.0  0.45920843083497237  0.17759386200770766  0.05891907649192679  1.0000
  Si  Si2       1.0  0.3802626365042374  0.3186960707746756  0.3439336650314688  1.0000
  O   O6        1.0  0.2332532361538765  0.7200017084989876  0.765836809333199  1.0000
  O   O7        1.0  0.7545373668489856  0.9647903022039289  0.7160263504138942  1.0000
