data_image0
_chemical_formula_structural       SiTiCaTiCaOSiO8
_chemical_formula_sum              "Si2 Ti2 Ca2 O9"
_cell_length_a       5.55082108507663
_cell_length_b       5.548696556572232
_cell_length_c       7.034861087799072
_cell_angle_alpha    103.55890521556279
_cell_angle_beta     103.54170638598454
_cell_angle_gamma    106.92887166848577

_space_group_name_H-M_alt    "P 1"
_space_group_IT_number       1

loop_
  _space_group_symop_operation_xyz
  'x, y, z'

loop_
  _atom_site_type_symbol
  _atom_site_label
  _atom_site_symmetry_multiplicity
  _atom_site_fract_x
  _atom_site_fract_y
  _atom_site_fract_z
  _atom_site_occupancy
  Si  Si1       1.0  0.9883829128128139  0.8428336375788039  0.48078586416933966  1.0000
  Ti  Ti1       1.0  0.6798484165403367  0.168812086716219  0.7348555229449395  1.0000
  Ca  Ca1       1.0  0.992930973774392  0.8375551596415491  0.9809133284151041  1.0000
  Ti  Ti2       1.0  0.6621383921365346  0.15104704251857656  0.22668576833137596  1.0000
  Ca  Ca2       1.0  0.3296927889616017  0.5016191624384914  0.47999067530085604  1.0000
  O   O1        1.0  0.9819846545641081  0.0423124373009042  0.3418164878101724  1.0000
  Si  Si2       1.0  0.3472847528244201  0.48347548743444935  0.9807642726141327  1.0000
  O   O2        1.0  0.5538041548952234  0.4834587361493453  0.8435219814704416  1.0000
  O   O3        1.0  0.7353361981025924  0.0952540733044425  0.9807073850595591  1.0000
  O   O4        1.0  0.9087276921299143  0.5313510209206658  0.34180264011464556  1.0000
  O   O5        1.0  0.7892233179082692  0.8490887378046984  0.6199947692034788  1.0000
  O   O6        1.0  0.2998270875197906  0.9221553800974513  0.6192440787999003  1.0000
  O   O7        1.0  0.3472394953832317  0.276613495554105  0.11780596345159348  1.0000
  O   O8        1.0  0.40713416657158685  0.7769892542070417  0.14895849505957298  1.0000
  O   O9        1.0  0.053708165808593375  0.4241099459894906  0.8132242862577399  1.0000
