data_image0
_chemical_formula_structural       TiCaSiO6SiO2
_chemical_formula_sum              "Ti1 Ca1 Si2 O8"
_cell_length_a       5.656419606723843
_cell_length_b       5.6544118250746624
_cell_length_c       5.667949199676514
_cell_angle_alpha    106.36118756271772
_cell_angle_beta     106.36672695073456
_cell_angle_gamma    115.5798430702312

_space_group_name_H-M_alt    "P 1"
_space_group_IT_number       1

loop_
  _space_group_symop_operation_xyz
  'x, y, z'

loop_
  _atom_site_type_symbol
  _atom_site_label
  _atom_site_symmetry_multiplicity
  _atom_site_fract_x
  _atom_site_fract_y
  _atom_site_fract_z
  _atom_site_occupancy
  Ti  Ti1       1.0  0.6100145906548055  0.05629136587100725  0.04924841251296083  1.0000
  Ca  Ca1       1.0  0.9312095877277279  0.7863327302079066  0.4959116879881505  1.0000
  Si  Si1       1.0  0.4589227455502434  0.3542782117634978  0.5840592233208608  1.0000
  O   O1        1.0  0.09561990185255914  0.19081791380718272  0.39299837333293847  1.0000
  O   O2        1.0  0.5823684318427587  0.2963608132311585  0.35254461609852533  1.0000
  O   O3        1.0  0.6223125656522767  0.71264351536512  0.7704742816016428  1.0000
  O   O4        1.0  0.9753213650892779  0.4680631982664358  0.1657178919667466  1.0000
  O   O5        1.0  0.07443811388797972  0.24087582367319094  0.7737836229362044  1.0000
  O   O6        1.0  0.17751176115719525  0.7764944103825405  0.8811425312211919  1.0000
  Si  Si2       1.0  0.18291633175386768  0.5579181528797345  0.01721417881287428  1.0000
  O   O7        1.0  0.5392795969920493  0.7697792060791817  0.2182648374805793  1.0000
  O   O8        1.0  0.4795234226424955  0.15124930181663304  0.7404481567487803  1.0000
