data_image0
_chemical_formula_structural       O3TiCaOSiO2
_chemical_formula_sum              "O6 Ti1 Ca1 Si1"
_cell_length_a       5.0051066702811395
_cell_length_b       5.010330298925381
_cell_length_c       5.035515785217285
_cell_angle_alpha    89.86961418860872
_cell_angle_beta     89.88966080341065
_cell_angle_gamma    119.90626518474544

_space_group_name_H-M_alt    "P 1"
_space_group_IT_number       1

loop_
  _space_group_symop_operation_xyz
  'x, y, z'

loop_
  _atom_site_type_symbol
  _atom_site_label
  _atom_site_symmetry_multiplicity
  _atom_site_fract_x
  _atom_site_fract_y
  _atom_site_fract_z
  _atom_site_occupancy
  O   O1        1.0  0.5992928028700557  0.38434781809022733  0.8528147937741255  1.0000
  O   O2        1.0  0.015440740005110193  0.800715171403048  0.44743833149357504  1.0000
  O   O3        1.0  0.014962316741113646  0.13666049419146925  0.853286489149702  1.0000
  Ti  Ti1       1.0  0.9592445514156555  0.4409144164099345  0.6500373762584007  1.0000
  Ca  Ca1       1.0  0.6260301314294764  0.7738879865065343  0.14999966810132748  1.0000
  O   O4        1.0  0.2629137421882122  0.7993385126685861  0.8527613477515139  1.0000
  Si  Si1       1.0  0.2927060151623444  0.10713238685208104  0.6500999831491503  1.0000
  O   O5        1.0  0.26332275912242187  0.3848925547058917  0.4468337961729525  1.0000
  O   O6        1.0  0.6007294934474408  0.13738773499408305  0.4471669399785479  1.0000
