data_image0
_chemical_formula_structural       CaSiO2
_chemical_formula_sum              "Ca1 Si1 O2"
_cell_length_a       3.4707804896026913
_cell_length_b       3.472083788286194
_cell_length_c       6.051692485809326
_cell_angle_alpha    73.53933492721583
_cell_angle_beta     73.55555767374962
_cell_angle_gamma    60.57880619899415

_space_group_name_H-M_alt    "P 1"
_space_group_IT_number       1

loop_
  _space_group_symop_operation_xyz
  'x, y, z'

loop_
  _atom_site_type_symbol
  _atom_site_label
  _atom_site_symmetry_multiplicity
  _atom_site_fract_x
  _atom_site_fract_y
  _atom_site_fract_z
  _atom_site_occupancy
  Ca  Ca1       1.0  0.5260971184109874  0.544638894128693  0.06208623036546586  1.0000
  Si  Si1       1.0  0.14840797453135962  0.13930733005445126  0.5616879342500226  1.0000
  O   O1        1.0  0.10669355615006207  0.12683379473318665  0.2921253690642906  1.0000
  O   O2        1.0  0.9292964737212691  0.950319507206069  0.8314436923808206  1.0000
