data_image0
_chemical_formula_structural       SiCaSiTiSiO2TiOCaO8
_chemical_formula_sum              "Si3 Ca2 Ti2 O11"
_cell_length_a       5.210278966851217
_cell_length_b       6.365503333266149
_cell_length_c       9.000031471252441
_cell_angle_alpha    85.40455568326612
_cell_angle_beta     76.86271338934097
_cell_angle_gamma    67.4745207323188

_space_group_name_H-M_alt    "P 1"
_space_group_IT_number       1

loop_
  _space_group_symop_operation_xyz
  'x, y, z'

loop_
  _atom_site_type_symbol
  _atom_site_label
  _atom_site_symmetry_multiplicity
  _atom_site_fract_x
  _atom_site_fract_y
  _atom_site_fract_z
  _atom_site_occupancy
  Si  Si1       1.0  0.7403067464370376  0.38281892577691523  0.06358249271448972  1.0000
  Ca  Ca1       1.0  0.3261072129294107  0.010768886909573791  0.14063665049498794  1.0000
  Si  Si2       1.0  0.8151646581338587  0.1026170712252498  0.8026354144793315  1.0000
  Ti  Ti1       1.0  0.13855905440918473  0.8175166925847687  0.47750874667651494  1.0000
  Si  Si3       1.0  0.2165101800694941  0.5457048555278895  0.15571981254808187  1.0000
  O   O1        1.0  0.9350674889682532  0.1725912524840485  0.9475058157221216  1.0000
  O   O2        1.0  0.07923922665808082  0.12360129136833634  0.3913477392153569  1.0000
  Ti  Ti2       1.0  0.8376018983618151  0.3987510299948446  0.4922945186539619  1.0000
  O   O3        1.0  0.4693528576238259  0.5947509980262955  0.005171660199311407  1.0000
  Ca  Ca2       1.0  0.5349890928301099  0.7396313681806709  0.7476052322642183  1.0000
  O   O4        1.0  0.08782150632227413  0.7730445349314338  0.2519136321605111  1.0000
  O   O5        1.0  0.09940345014550891  0.9213364058292246  0.6973483592468974  1.0000
  O   O6        1.0  0.6832515354268777  0.33663102988560173  0.7096882188053752  1.0000
  O   O7        1.0  0.9833912817196527  0.45373993810168983  0.11288460536284847  1.0000
  O   O8        1.0  0.4959198226076065  0.31276549571992285  0.1937770566416326  1.0000
  O   O9        1.0  0.5863842604991504  0.9956728463376971  0.8919360559647367  1.0000
  O   O10       1.0  0.9364675153745751  0.6289115011988187  0.5588559905106272  1.0000
  O   O11       1.0  0.5088297987079283  0.623454905593021  0.44202639802135524  1.0000
