data_image0
_chemical_formula_structural       O2CaSiTiO5SiO
_chemical_formula_sum              "O8 Ca1 Si2 Ti1"
_cell_length_a       5.644134171413611
_cell_length_b       5.644963391476206
_cell_length_c       5.644231796264648
_cell_angle_alpha    106.45766948391467
_cell_angle_beta     106.53845112243766
_cell_angle_gamma    115.47822643400565

_space_group_name_H-M_alt    "P 1"
_space_group_IT_number       1

loop_
  _space_group_symop_operation_xyz
  'x, y, z'

loop_
  _atom_site_type_symbol
  _atom_site_label
  _atom_site_symmetry_multiplicity
  _atom_site_fract_x
  _atom_site_fract_y
  _atom_site_fract_z
  _atom_site_occupancy
  O   O1        1.0  0.5613235553314497  0.6307351062509755  0.7631978425864342  1.0000
  O   O2        1.0  0.5017724437438223  0.7080563424713024  0.3092499040929755  1.0000
  Ca  Ca1       1.0  0.5751911988092768  0.022519246088225333  0.03630882334958682  1.0000
  Si  Si1       1.0  0.14248181004412722  0.5454038367641443  0.12148135007177684  1.0000
  Ti  Ti1       1.0  0.8434450700177909  0.704379267919912  0.5923113943803476  1.0000
  O   O3        1.0  0.9740562073206864  0.18129418294987104  0.9217513304793121  1.0000
  O   O4        1.0  0.5676951609941016  0.26931580652184745  0.422967386157911  1.0000
  O   O5        1.0  0.08703624681482316  0.675289519824502  0.8944188071528464  1.0000
  O   O6        1.0  0.9411518808123686  0.56928871515056  0.27929280603333584  1.0000
  O   O7        1.0  0.2572806641317317  0.06473257525454082  0.7045384686303894  1.0000
  Si  Si2       1.0  0.3484495580398588  0.27412688595681345  0.5582508598452924  1.0000
  O   O8        1.0  0.033177448069953944  0.17172548639309718  0.314058797978979  1.0000
