data_image0
_chemical_formula_structural       TiO3SiOCaO2
_chemical_formula_sum              "Ti1 O6 Si1 Ca1"
_cell_length_a       4.985341569615785
_cell_length_b       5.019178862439791
_cell_length_c       5.021807670593262
_cell_angle_alpha    119.98135629447334
_cell_angle_beta     90.00522076925454
_cell_angle_gamma    90.00643654330109

_space_group_name_H-M_alt    "P 1"
_space_group_IT_number       1

loop_
  _space_group_symop_operation_xyz
  'x, y, z'

loop_
  _atom_site_type_symbol
  _atom_site_label
  _atom_site_symmetry_multiplicity
  _atom_site_fract_x
  _atom_site_fract_y
  _atom_site_fract_z
  _atom_site_occupancy
  Ti  Ti1       1.0  0.6768185495510024  0.7311293254620566  0.8582083616349078  1.0000
  O   O1        1.0  0.4725528332579629  0.3714605492718723  0.5546003765979575  1.0000
  O   O2        1.0  0.8814685524402611  0.3717537403935104  0.801047002426889  1.0000
  O   O3        1.0  0.47276677925124416  0.034134023843846326  0.8013972096753489  1.0000
  Si  Si1       1.0  0.6769623125005813  0.06434490326922289  0.5242917139260299  1.0000
  O   O4        1.0  0.47282397010127647  0.786916603279234  0.2169937262637584  1.0000
  Ca  Ca1       1.0  0.1768536885422622  0.39773138411610004  0.1910711744649818  1.0000
  O   O5        1.0  0.8812807192099008  0.03415954696083125  0.21709977281531476  1.0000
  O   O6        1.0  0.8813157477181388  0.787656701784488  0.5548909340069238  1.0000
