data_image0
_chemical_formula_structural       OSiOCaOSiCaTiO3TiO2SiO
_chemical_formula_sum              "O9 Si3 Ca2 Ti2"
_cell_length_a       5.20751129409869
_cell_length_b       5.892444671614012
_cell_length_c       8.402887344360352
_cell_angle_alpha    106.20821145683152
_cell_angle_beta     106.73517508241598
_cell_angle_gamma    103.19719173545337

_space_group_name_H-M_alt    "P 1"
_space_group_IT_number       1

loop_
  _space_group_symop_operation_xyz
  'x, y, z'

loop_
  _atom_site_type_symbol
  _atom_site_label
  _atom_site_symmetry_multiplicity
  _atom_site_fract_x
  _atom_site_fract_y
  _atom_site_fract_z
  _atom_site_occupancy
  O   O1        1.0  0.516534329285439  0.3271533943352767  0.7293385249739485  1.0000
  Si  Si1       1.0  0.4002942254721346  0.5099014694183925  0.8635253925286549  1.0000
  O   O2        1.0  0.3837605694193764  0.788196338125499  0.24930156376907106  1.0000
  Ca  Ca1       1.0  0.32760765234061906  0.9032674981527018  0.5184020086230816  1.0000
  O   O3        1.0  0.870162307982002  0.6553303095003719  0.4418799962756811  1.0000
  Si  Si2       1.0  0.667890031964142  0.02077549422957592  0.2797502471911605  1.0000
  Ca  Ca2       1.0  0.8123971924274346  0.17549264473497986  0.9400921967541279  1.0000
  Ti  Ti1       1.0  0.7708991638459333  0.5406174073269249  0.61477489403366  1.0000
  O   O4        1.0  0.15895466345478898  0.6201211390993558  0.7682971494294574  1.0000
  O   O5        1.0  0.6232408161159743  0.19527199877349918  0.15892132459875852  1.0000
  O   O6        1.0  0.26249406032789974  0.34927701303861236  0.971131833955857  1.0000
  Ti  Ti2       1.0  0.5163060124990002  0.48922932229157556  0.24144380428405138  1.0000
  O   O7        1.0  0.782728128846484  0.18271981096209428  0.49355354385202305  1.0000
  O   O8        1.0  0.3590657423686446  0.40265780588869465  0.3843788799170279  1.0000
  Si  Si3       1.0  0.8414076918819348  0.7695931809091215  0.09963704271717772  1.0000
  O   O9        1.0  0.6755356591427869  0.8075900188622989  0.7114123468584925  1.0000
