data_image0
_chemical_formula_structural       CaSi2O5TiCaTiO5
_chemical_formula_sum              "Ca2 Si2 O10 Ti2"
_cell_length_a       5.509872883232316
_cell_length_b       5.5094821535862835
_cell_length_c       7.116717338562012
_cell_angle_alpha    104.18588964454713
_cell_angle_beta     104.14434059797534
_cell_angle_gamma    105.69308007342636

_space_group_name_H-M_alt    "P 1"
_space_group_IT_number       1

loop_
  _space_group_symop_operation_xyz
  'x, y, z'

loop_
  _atom_site_type_symbol
  _atom_site_label
  _atom_site_symmetry_multiplicity
  _atom_site_fract_x
  _atom_site_fract_y
  _atom_site_fract_z
  _atom_site_occupancy
  Ca  Ca1       1.0  0.3674463410152992  0.7302805310455518  0.7403288637860611  1.0000
  Si  Si1       1.0  0.37634153818290245  0.721307222213138  0.24058203400511544  1.0000
  Si  Si2       1.0  0.01539216828402438  0.08232619125955812  0.7404561758938576  1.0000
  O   O1        1.0  0.6271063153393471  0.4705735231294119  0.7405711204191159  1.0000
  O   O2        1.0  0.7643997490992791  0.33283920093521946  0.24042457716711413  1.0000
  O   O3        1.0  0.3181258530824687  0.1511597635622026  0.898251300174486  1.0000
  O   O4        1.0  0.44506685174682015  0.02415250589716136  0.39840854891181166  1.0000
  O   O5        1.0  0.38243244552521066  0.5147072350880465  0.3742681612375375  1.0000
  Ti  Ti1       1.0  0.6957946569902405  0.4019023361069532  0.9903686048157243  1.0000
  Ca  Ca2       1.0  0.024399969415608378  0.07346688385584951  0.24031241561207503  1.0000
  Ti  Ti2       1.0  0.6959299449521091  0.40175423540817307  0.49034847755520616  1.0000
  O   O6        1.0  0.9464459427920133  0.7794139985170948  0.5826752023786756  1.0000
  O   O7        1.0  0.009261533389389898  0.2889428138445237  0.6067783341699806  1.0000
  O   O8        1.0  0.07354130600432651  0.6523356590566609  0.08274294801120492  1.0000
  O   O9        1.0  0.8086964760533523  0.08839172155394545  0.8741810633208686  1.0000
  O   O10       1.0  0.5831033597220253  0.7152639417293465  0.10693521508723226  1.0000
