data_image0
_chemical_formula_structural       TiSiO2CaSiO6
_chemical_formula_sum              "Ti1 Si2 O8 Ca1"
_cell_length_a       5.076921378520803
_cell_length_b       5.0819168715299226
_cell_length_c       6.826578617095947
_cell_angle_alpha    89.57577263017548
_cell_angle_beta     89.5015967654656
_cell_angle_gamma    64.63056852762676

_space_group_name_H-M_alt    "P 1"
_space_group_IT_number       1

loop_
  _space_group_symop_operation_xyz
  'x, y, z'

loop_
  _atom_site_type_symbol
  _atom_site_label
  _atom_site_symmetry_multiplicity
  _atom_site_fract_x
  _atom_site_fract_y
  _atom_site_fract_z
  _atom_site_occupancy
  Ti  Ti1       1.0  0.7731610264852444  0.2729049271425934  0.7026109817557528  1.0000
  Si  Si1       1.0  0.4154089049029068  0.9145784272954033  0.47460986786654624  1.0000
  O   O1        1.0  0.04370036115531437  0.5453942898870512  0.1493151858605663  1.0000
  O   O2        1.0  0.9836384967174656  0.9850305904043559  0.9107555527005274  1.0000
  Ca  Ca1       1.0  0.7733537732913985  0.2729409836214044  0.20256591577728536  1.0000
  Si  Si2       1.0  0.1307107451205885  0.6310426026421524  0.9307379426080791  1.0000
  O   O3        1.0  0.5626264871842488  0.5605661416559613  0.4943099369426128  1.0000
  O   O4        1.0  0.5025302744767652  0.001143526888149152  0.2563433219345813  1.0000
  O   O5        1.0  0.557593423091853  0.05759172328723431  0.6301332269285573  1.0000
  O   O6        1.0  0.4851940652595599  0.48338725994069304  0.9111752103961006  1.0000
  O   O7        1.0  0.06093131640140705  0.06209097996073752  0.4940430816341479  1.0000
  O   O8        1.0  0.9885156934296053  0.48793585853899857  0.7752674515066604  1.0000
