data_image0
_chemical_formula_structural       Si2CaTiO8
_chemical_formula_sum              "Si2 Ca1 Ti1 O8"
_cell_length_a       5.09073927075168
_cell_length_b       5.092780584490426
_cell_length_c       6.836192607879638
_cell_angle_alpha    90.68352000318355
_cell_angle_beta     90.5260909669395
_cell_angle_gamma    64.19327805251488

_space_group_name_H-M_alt    "P 1"
_space_group_IT_number       1

loop_
  _space_group_symop_operation_xyz
  'x, y, z'

loop_
  _atom_site_type_symbol
  _atom_site_label
  _atom_site_symmetry_multiplicity
  _atom_site_fract_x
  _atom_site_fract_y
  _atom_site_fract_z
  _atom_site_occupancy
  Si  Si1       1.0  0.3120538263723077  0.05687645834471297  0.2522566771351896  1.0000
  Si  Si2       1.0  0.025172430556583802  0.7684363836927355  0.7950722818088639  1.0000
  Ca  Ca1       1.0  0.6686213081249147  0.4124594388453934  0.523604050910622  1.0000
  Ti  Ti1       1.0  0.668639799080478  0.4126505462635852  0.023607866391900306  1.0000
  O   O1        1.0  0.8777749153820839  0.12307008140935558  0.8151035817837887  1.0000
  O   O2        1.0  0.45470405915797013  0.19899016447689793  0.0982108552701665  1.0000
  O   O3        1.0  0.9575658949560367  0.20352867438031105  0.23148674347857817  1.0000
  O   O4        1.0  0.37969524755654754  0.621657766973846  0.8157102042613639  1.0000
  O   O5        1.0  0.9405042993296212  0.6816247239265893  0.5762195281817658  1.0000
  O   O6        1.0  0.4595632286660987  0.7022498601537751  0.23214798252373287  1.0000
  O   O7        1.0  0.39636878701850853  0.14357274185134083  0.47122540328990536  1.0000
  O   O8        1.0  0.8825393400031464  0.6264986446974309  0.9492082649998668  1.0000
