data_image0
_chemical_formula_structural       OSiTiO2CaTiO5
_chemical_formula_sum              "O8 Si1 Ti2 Ca1"
_cell_length_a       4.734058166209112
_cell_length_b       4.747746353864212
_cell_length_c       6.4729700088500985
_cell_angle_alpha    84.65041385660348
_cell_angle_beta     84.59297923577799
_cell_angle_gamma    79.86362655669119

_space_group_name_H-M_alt    "P 1"
_space_group_IT_number       1

loop_
  _space_group_symop_operation_xyz
  'x, y, z'

loop_
  _atom_site_type_symbol
  _atom_site_label
  _atom_site_symmetry_multiplicity
  _atom_site_fract_x
  _atom_site_fract_y
  _atom_site_fract_z
  _atom_site_occupancy
  O   O1        1.0  0.739398324935286  0.007586211882861149  0.4045421949813059  1.0000
  Si  Si1       1.0  0.06802422134509356  0.33596988685332013  0.9015794164293848  1.0000
  Ti  Ti1       1.0  0.622362767567914  0.8900206628396397  0.17102243510225917  1.0000
  O   O2        1.0  0.8665949716286657  0.5494628957453147  0.09734180551298181  1.0000
  O   O3        1.0  0.269230034089753  0.12236064946787104  0.7057963261184276  1.0000
  Ca  Ca1       1.0  0.0675850937375258  0.33568252853013136  0.40162300453610494  1.0000
  Ti  Ti2       1.0  0.512992118818485  0.7813867582488655  0.6323744684072274  1.0000
  O   O4        1.0  0.8547650681714263  0.5376247470352823  0.7059049265847601  1.0000
  O   O5        1.0  0.39605028394223796  0.6638604284946521  0.3987494126202749  1.0000
  O   O6        1.0  0.8252438679568979  0.09404418118500002  0.951679512366017  1.0000
  O   O7        1.0  0.3107848779489356  0.5778060165048382  0.8519276954664481  1.0000
  O   O8        1.0  0.28100012739349844  0.13406161305854894  0.0972964461217995  1.0000
