data_image0
_chemical_formula_structural       CaO2SiTiOSiO3
_chemical_formula_sum              "Ca1 O6 Si2 Ti1"
_cell_length_a       5.172730502619344
_cell_length_b       5.190249870599299
_cell_length_c       6.110543251037598
_cell_angle_alpha    114.83844171586887
_cell_angle_beta     90.05566171310629
_cell_angle_gamma    120.03410958928018

_space_group_name_H-M_alt    "P 1"
_space_group_IT_number       1

loop_
  _space_group_symop_operation_xyz
  'x, y, z'

loop_
  _atom_site_type_symbol
  _atom_site_label
  _atom_site_symmetry_multiplicity
  _atom_site_fract_x
  _atom_site_fract_y
  _atom_site_fract_z
  _atom_site_occupancy
  Ca  Ca1       1.0  0.19603898791041727  0.5120164020679397  0.7835702535993763  1.0000
  O   O1        1.0  0.2698534197927159  0.32507682035870494  0.058909147504461946  1.0000
  O   O2        1.0  0.6572996398081549  0.04860475116448304  0.05978974205978352  1.0000
  Si  Si1       1.0  0.9750275758630024  0.07047225226825832  0.12206774003493832  1.0000
  Ti  Ti1       1.0  0.695966539395746  0.5118801202218621  0.28336718305539793  1.0000
  O   O3        1.0  0.9351059917821538  0.713787688367563  0.058749194889307646  1.0000
  Si  Si2       1.0  0.4172277968733144  0.953913639357413  0.4456139610127548  1.0000
  O   O4        1.0  0.12212652109502273  0.6990560429551517  0.5082381584968876  1.0000
  O   O5        1.0  0.7346797142821051  0.9752464844584188  0.5073769042712601  1.0000
  O   O6        1.0  0.4571571485726623  0.31033490479705805  0.508395043029297  1.0000
