data_image0
_chemical_formula_structural       Ca3OCaSiOTiO3SiO2TiO5
_chemical_formula_sum              "Ca4 O12 Si2 Ti2"
_cell_length_a       5.690523308472053
_cell_length_b       7.726284305439086
_cell_length_c       6.739444732666016
_cell_angle_alpha    70.84475621708994
_cell_angle_beta     77.38195291526378
_cell_angle_gamma    78.16068314679471

_space_group_name_H-M_alt    "P 1"
_space_group_IT_number       1

loop_
  _space_group_symop_operation_xyz
  'x, y, z'

loop_
  _atom_site_type_symbol
  _atom_site_label
  _atom_site_symmetry_multiplicity
  _atom_site_fract_x
  _atom_site_fract_y
  _atom_site_fract_z
  _atom_site_occupancy
  Ca  Ca1       1.0  0.8716260293524595  0.5691379429644873  0.7583396274729888  1.0000
  Ca  Ca2       1.0  0.7409138720982836  0.991553044726749  0.7995738042175043  1.0000
  Ca  Ca3       1.0  0.9990655262533108  0.4439138087209627  0.29204125717457696  1.0000
  O   O1        1.0  0.40493862434352557  0.5198712009850736  0.11127797441262144  1.0000
  Ca  Ca4       1.0  0.43564500796462285  0.8428124481946331  0.4330250977133518  1.0000
  Si  Si1       1.0  0.48499677630397375  0.38345149543678053  0.5851916366901365  1.0000
  O   O2        1.0  0.9794591571936146  0.8930152398480963  0.5087473445031303  1.0000
  Ti  Ti1       1.0  0.5440506891987198  0.26273181605073315  0.1300700963393839  1.0000
  O   O3        1.0  0.2531777841323633  0.16503129188476362  0.276866920326315  1.0000
  O   O4        1.0  0.8752988103891259  0.30861205904432426  0.0728845552436289  1.0000
  O   O5        1.0  0.7144051490288642  0.0031825289850773153  0.1636010722627871  1.0000
  Si  Si2       1.0  0.28920659932074333  0.7311134728737427  0.9800877426757879  1.0000
  O   O6        1.0  0.4928555231550674  0.80312030575129  0.7721126366305262  1.0000
  O   O7        1.0  0.018868271135250785  0.7116963057230418  0.9519924156248868  1.0000
  Ti  Ti2       1.0  7.425438295904918e-05  0.03920066448565506  0.23935429228396002  1.0000
  O   O8        1.0  0.2534163836397022  0.879209945476766  0.1193386078429074  1.0000
  O   O9        1.0  0.20030187499301033  0.4553840727173668  0.566879770634291  1.0000
  O   O10       1.0  0.5265548600835003  0.28332265856499383  0.8411073785610552  1.0000
  O   O11       1.0  0.6550944246368953  0.5519286042543703  0.49891949899925764  1.0000
  O   O12       1.0  0.6187735806519621  0.2242012737735081  0.4666725218478474  1.0000
