data_image0
_chemical_formula_structural       TiCa2O3SiO3TiSiO4
_chemical_formula_sum              "Ti2 Ca2 O10 Si2"
_cell_length_a       4.837082655030541
_cell_length_b       6.002459188913908
_cell_length_c       7.51279878616333
_cell_angle_alpha    99.57467838085897
_cell_angle_beta     93.88132573691603
_cell_angle_gamma    90.34806216388397

_space_group_name_H-M_alt    "P 1"
_space_group_IT_number       1

loop_
  _space_group_symop_operation_xyz
  'x, y, z'

loop_
  _atom_site_type_symbol
  _atom_site_label
  _atom_site_symmetry_multiplicity
  _atom_site_fract_x
  _atom_site_fract_y
  _atom_site_fract_z
  _atom_site_occupancy
  Ti  Ti1       1.0  0.3814270382341847  0.10218989231866737  0.22649348687853268  1.0000
  Ca  Ca1       1.0  0.9867705171336612  0.9278341608360633  0.509796511563412  1.0000
  Ca  Ca2       1.0  0.9352154609700036  0.28916634212951897  0.9504662163300315  1.0000
  O   O1        1.0  0.459024417431659  0.8189577763399035  0.04024106586416232  1.0000
  O   O2        1.0  0.44318017279090577  0.32299729723391674  0.07368496019608371  1.0000
  O   O3        1.0  0.6587230514546554  0.510888008444625  0.7765683231224371  1.0000
  Si  Si1       1.0  0.5487387194526071  0.7810952778702759  0.8299566677463733  1.0000
  O   O4        1.0  0.4706487204284692  0.39262784207807255  0.41960701579960724  1.0000
  O   O5        1.0  0.17192759176494543  0.2522390493956933  0.6760074188814624  1.0000
  O   O6        1.0  0.9021872818141136  0.6008421344602816  0.23585431788691474  1.0000
  Ti  Ti2       1.0  0.5474516017380047  0.6041467924036432  0.23313514908375066  1.0000
  Si  Si2       1.0  0.3771381860589965  0.4373362885502044  0.6292167212068303  1.0000
  O   O7        1.0  0.26742182089383043  0.7076963468815105  0.6823893711534876  1.0000
  O   O8        1.0  0.026035111620851255  0.09668046830642417  0.2240015507025195  1.0000
  O   O9        1.0  0.48738466234773253  0.8899890625444251  0.3856199048460638  1.0000
  O   O10       1.0  0.7526600340784789  0.9665950270387522  0.7826574898075108  1.0000
