data_image0
_chemical_formula_structural       OCaSiO2TiO3SiO2
_chemical_formula_sum              "O8 Ca1 Si2 Ti1"
_cell_length_a       5.342543248369705
_cell_length_b       5.343569331796448
_cell_length_c       6.520359992980958
_cell_angle_alpha    90.00807578845635
_cell_angle_beta     89.98769450379461
_cell_angle_gamma    119.98770808727937

_space_group_name_H-M_alt    "P 1"
_space_group_IT_number       1

loop_
  _space_group_symop_operation_xyz
  'x, y, z'

loop_
  _atom_site_type_symbol
  _atom_site_label
  _atom_site_symmetry_multiplicity
  _atom_site_fract_x
  _atom_site_fract_y
  _atom_site_fract_z
  _atom_site_occupancy
  O   O1        1.0  0.18771538525710557  0.6805114395571712  0.6171235028458393  1.0000
  Ca  Ca1       1.0  0.8542345897435107  0.013745206360488402  0.6285256055535507  1.0000
  Si  Si1       1.0  0.5211264935496666  0.347237276258025  0.3865605970226193  1.0000
  O   O2        1.0  0.18394888661977296  0.17868097982017692  0.31574202120086686  1.0000
  O   O3        1.0  0.019094449514524013  0.8492215926276921  0.9413493102559295  1.0000
  Ti  Ti1       1.0  0.8544157475004254  0.013845326622011647  0.1286057230391237  1.0000
  O   O4        1.0  0.018879435221228934  0.34332976269311066  0.9414718426669544  1.0000
  O   O5        1.0  0.6896770743704501  0.1784643888501484  0.3158980661942684  1.0000
  O   O6        1.0  0.524814661436748  0.8490141286362567  0.94155071685064  1.0000
  Si  Si2       1.0  0.1876603056417441  0.6804629171541366  0.8706665942045841  1.0000
  O   O7        1.0  0.5212526386464601  0.34703979220047565  0.6401088345108817  1.0000
  O   O8        1.0  0.6899094807457405  0.6843973169389149  0.3158333997617206  1.0000
