data_image0
_chemical_formula_structural       CaOSiO
_chemical_formula_sum              "Ca1 O2 Si1"
_cell_length_a       3.3873217587110687
_cell_length_b       3.149148205031294
_cell_length_c       4.919511795043945
_cell_angle_alpha    90.24209856420119
_cell_angle_beta     90.19251822387955
_cell_angle_gamma    89.97519525656747

_space_group_name_H-M_alt    "P 1"
_space_group_IT_number       1

loop_
  _space_group_symop_operation_xyz
  'x, y, z'

loop_
  _atom_site_type_symbol
  _atom_site_label
  _atom_site_symmetry_multiplicity
  _atom_site_fract_x
  _atom_site_fract_y
  _atom_site_fract_z
  _atom_site_occupancy
  Ca  Ca1       1.0  0.7031692768794198  0.8992410340720796  0.5013932743468758  1.0000
  O   O1        1.0  0.20309273958376295  0.39605411631964105  0.33923900806432805  1.0000
  Si  Si1       1.0  0.20189304424773544  0.3315515989047595  0.9882989696121312  1.0000
  O   O2        1.0  0.7013946445329016  0.49729793763611935  0.9244934035302582  1.0000
