data_image0
_chemical_formula_structural       Si2OCaOCaO4SiOTiCaO5
_chemical_formula_sum              "Si3 O12 Ca3 Ti1"
_cell_length_a       5.7420149512458645
_cell_length_b       7.303443463520068
_cell_length_c       8.383474349975586
_cell_angle_alpha    111.40726994473822
_cell_angle_beta     105.500097721459
_cell_angle_gamma    97.99333683709935

_space_group_name_H-M_alt    "P 1"
_space_group_IT_number       1

loop_
  _space_group_symop_operation_xyz
  'x, y, z'

loop_
  _atom_site_type_symbol
  _atom_site_label
  _atom_site_symmetry_multiplicity
  _atom_site_fract_x
  _atom_site_fract_y
  _atom_site_fract_z
  _atom_site_occupancy
  Si  Si1       1.0  0.08309705669034441  0.6619421256285547  0.6434991003274128  1.0000
  Si  Si2       1.0  0.11707104642681582  0.9675685317999875  0.2271259098615579  1.0000
  O   O1        1.0  0.04639024731632423  0.12280698763497655  0.4000534914344803  1.0000
  Ca  Ca1       1.0  0.9930985596070672  0.46302757129020533  0.157921674246901  1.0000
  O   O2        1.0  0.15091155754414032  0.6296887875294134  0.4620655564615945  1.0000
  Ca  Ca2       1.0  0.5133330767181614  0.9050579458531398  0.5865632489045893  1.0000
  O   O3        1.0  0.6526617771646601  0.2134447493523003  0.08428199951641853  1.0000
  O   O4        1.0  0.3106246543582538  0.848009500490826  0.8156854456902148  1.0000
  O   O5        1.0  0.36768061319138945  0.188072330047241  0.7252042676214585  1.0000
  O   O6        1.0  0.30739712149629966  0.43809992178361135  0.04395445709230466  1.0000
  Si  Si3       1.0  0.10213035339030149  0.21852053338472233  0.6191804135801384  1.0000
  O   O7        1.0  0.08276573242548474  0.4569627795502813  0.6859262834523376  1.0000
  Ti  Ti1       1.0  0.3416440646317155  0.17528269371408775  0.966906003615357  1.0000
  Ca  Ca3       1.0  0.48629530296403095  0.7458441081196817  0.05177815316340041  1.0000
  O   O8        1.0  0.15490749794768868  0.09268623874671779  0.1034832916350136  1.0000
  O   O9        1.0  0.9066041114040467  0.1007601839634724  0.6855255966833702  1.0000
  O   O10       1.0  0.8122696929750908  0.7205285991657577  0.6249832847272307  1.0000
  O   O11       1.0  0.8915822378885687  0.7555078817072078  0.11723291476660562  1.0000
  O   O12       1.0  0.376720948176536  0.9080500737668784  0.30246188760996495  1.0000
