data_image0
_chemical_formula_structural       CaOCaTiOSiO4
_chemical_formula_sum              "Ca2 O6 Ti1 Si1"
_cell_length_a       5.2701937657279405
_cell_length_b       5.270158725089452
_cell_length_c       5.278761863708495
_cell_angle_alpha    90.35480350571414
_cell_angle_beta     119.70791631746168
_cell_angle_gamma    119.91099465739732

_space_group_name_H-M_alt    "P 1"
_space_group_IT_number       1

loop_
  _space_group_symop_operation_xyz
  'x, y, z'

loop_
  _atom_site_type_symbol
  _atom_site_label
  _atom_site_symmetry_multiplicity
  _atom_site_fract_x
  _atom_site_fract_y
  _atom_site_fract_z
  _atom_site_occupancy
  Ca  Ca1       1.0  0.8978148756232093  0.3658930296193737  0.043590361480875646  1.0000
  O   O1        1.0  0.4028162197956005  0.8861040483289471  0.58932719650689  1.0000
  Ca  Ca2       1.0  0.9055926093300817  0.867236419405804  0.5529366398133634  1.0000
  Ti  Ti1       1.0  0.40156512220208535  0.11657541673506107  0.2982441978675677  1.0000
  O   O2        1.0  0.9232616038518331  0.4066141401112113  0.5890739520176949  1.0000
  Si  Si1       1.0  0.40154205414186783  0.616517268804305  0.7982104005905682  1.0000
  O   O3        1.0  0.3453811616559031  0.3780050144195645  0.5034804785624093  1.0000
  O   O4        1.0  0.400151558249141  0.3469818924641068  0.007015319587042518  1.0000
  O   O5        1.0  0.45753857756804117  0.8549888317586527  0.0930230873622468  1.0000
  O   O6        1.0  0.879806242754938  0.8267160929033346  0.007375558518992539  1.0000
