data_image0
_chemical_formula_structural       OTiOSiCaTiCaOSiO6TiO2
_chemical_formula_sum              "O11 Ti3 Si2 Ca2"
_cell_length_a       5.806547163300739
_cell_length_b       5.9055717228125175
_cell_length_c       8.243852615356445
_cell_angle_alpha    81.54536839310285
_cell_angle_beta     78.37119557982993
_cell_angle_gamma    81.37326218038649

_space_group_name_H-M_alt    "P 1"
_space_group_IT_number       1

loop_
  _space_group_symop_operation_xyz
  'x, y, z'

loop_
  _atom_site_type_symbol
  _atom_site_label
  _atom_site_symmetry_multiplicity
  _atom_site_fract_x
  _atom_site_fract_y
  _atom_site_fract_z
  _atom_site_occupancy
  O   O1        1.0  0.7038224237381536  0.35746138604601285  0.4016278080947493  1.0000
  Ti  Ti1       1.0  0.3328352123615867  0.2178185197812405  0.16083827672356052  1.0000
  O   O2        1.0  0.8401282118651281  0.7788015776922914  0.3898884774551897  1.0000
  Si  Si1       1.0  0.8223011336907017  0.5715002546078327  0.2788301995788947  1.0000
  Ca  Ca1       1.0  0.1534445259991596  0.790453303277031  0.5803226247919863  1.0000
  Ti  Ti2       1.0  0.6809532098363754  0.9425546822015982  0.9594866633146147  1.0000
  Ca  Ca2       1.0  0.9166516328627541  0.4187765882658855  0.9205538121484422  1.0000
  O   O3        1.0  0.2485736369711823  0.4377375113312087  0.7091468359983999  1.0000
  Si  Si2       1.0  0.43417479159939576  0.21613049789199915  0.7484425854019312  1.0000
  O   O4        1.0  0.6685748458491668  0.6696933929757942  0.12959326762345563  1.0000
  O   O5        1.0  0.30865280687118946  0.012111307817911057  0.3461247858525961  1.0000
  O   O6        1.0  0.4513242738466002  0.017705823572700657  0.6242253250433362  1.0000
  O   O7        1.0  0.9024118193691814  0.7963575689104175  0.8184500474491014  1.0000
  O   O8        1.0  0.6862159485343637  0.14900021948027337  0.12409961946652143  1.0000
  O   O9        1.0  0.6932391542106351  0.24627057760107365  0.7866273945443716  1.0000
  Ti  Ti3       1.0  0.6206151265918555  0.06667882987693831  0.38630279950852814  1.0000
  O   O10       1.0  0.0841192940557878  0.4680889566986218  0.17499768152414533  1.0000
  O   O11       1.0  0.32691851145088613  0.08937921597095755  0.950028272121881  1.0000
