data_image0
_chemical_formula_structural       CaOTiSi
_chemical_formula_sum              "Ca1 O1 Ti1 Si1"
_cell_length_a       3.145282338368495
_cell_length_b       3.1484849360007234
_cell_length_c       7.262441158294679
_cell_angle_alpha    90.0771153410496
_cell_angle_beta     102.49855137156985
_cell_angle_gamma    119.92162126310375

_space_group_name_H-M_alt    "P 1"
_space_group_IT_number       1

loop_
  _space_group_symop_operation_xyz
  'x, y, z'

loop_
  _atom_site_type_symbol
  _atom_site_label
  _atom_site_symmetry_multiplicity
  _atom_site_fract_x
  _atom_site_fract_y
  _atom_site_fract_z
  _atom_site_occupancy
  Ca  Ca1       1.0  0.2922858404049216  0.1432897119918543  0.5969936980482823  1.0000
  O   O1        1.0  0.48534382006293775  0.7395594076924706  0.3867572640502873  1.0000
  Ti  Ti1       1.0  0.6956393668316491  0.3448816761758887  0.20197150280580778  1.0000
  Si  Si1       1.0  0.8507435767037973  0.9217777533012507  0.9345130662025307  1.0000
