data_image0
_chemical_formula_structural       Ca2SiTiSiOCaO4Si2O7
_chemical_formula_sum              "Ca3 Si4 Ti1 O12"
_cell_length_a       5.259348443799249
_cell_length_b       7.128024538903856
_cell_length_c       9.01996898651123
_cell_angle_alpha    113.24481626937309
_cell_angle_beta     102.43050275578575
_cell_angle_gamma    89.90298660626144

_space_group_name_H-M_alt    "P 1"
_space_group_IT_number       1

loop_
  _space_group_symop_operation_xyz
  'x, y, z'

loop_
  _atom_site_type_symbol
  _atom_site_label
  _atom_site_symmetry_multiplicity
  _atom_site_fract_x
  _atom_site_fract_y
  _atom_site_fract_z
  _atom_site_occupancy
  Ca  Ca1       1.0  0.8725892095570603  0.8570391414502593  0.7511419516125026  1.0000
  Ca  Ca2       1.0  0.21204057747499488  0.9521163379034394  0.46662114700020213  1.0000
  Si  Si1       1.0  0.39465664399844247  0.9223941067538313  0.9984372206792212  1.0000
  Ti  Ti1       1.0  0.9083564218489149  0.68226560269213  0.03253225361485474  1.0000
  Si  Si2       1.0  0.7514780257113105  0.2555962212326988  0.6539760298020008  1.0000
  O   O1        1.0  0.42929896780918153  0.033111765906054136  0.2067529975338847  1.0000
  Ca  Ca3       1.0  0.3457868558413968  0.35495325803695943  0.8795295828963001  1.0000
  O   O2        1.0  0.24877546623223892  0.0696964536856006  0.9150120182796566  1.0000
  O   O3        1.0  0.5990457948317521  0.051894933429936695  0.6481853420338993  1.0000
  O   O4        1.0  0.023807763570935274  0.6919465634528783  0.5295266439639714  1.0000
  O   O5        1.0  0.15467151594098408  0.3449850022997882  0.30151170991959975  1.0000
  Si  Si3       1.0  0.4533852239320674  0.2816440475462613  0.3174761467222197  1.0000
  Si  Si4       1.0  0.9522764265533923  0.5249135970669908  0.3411518864187985  1.0000
  O   O6        1.0  0.048534481811377136  0.22077899036374116  0.6341403874151682  1.0000
  O   O7        1.0  0.7342743376774078  0.44230150802576196  0.8299449518594538  1.0000
  O   O8        1.0  0.20358572026666194  0.7055106095641747  0.9281841669795633  1.0000
  O   O9        1.0  0.9968063197289291  0.6637502089283503  0.23840023619384462  1.0000
  O   O10       1.0  0.6826156016436984  0.8703782945662503  0.9606763127456256  1.0000
  O   O11       1.0  0.5730604728151513  0.32075113354961554  0.5097142914909312  1.0000
  O   O12       1.0  0.6483758665800782  0.4076508472850229  0.2609829108459566  1.0000
