data_image0
_chemical_formula_structural       CaO2TiO2SiO2
_chemical_formula_sum              "Ca1 O6 Ti1 Si1"
_cell_length_a       5.004959015714855
_cell_length_b       5.007305159811056
_cell_length_c       5.030356407165528
_cell_angle_alpha    89.96436941001102
_cell_angle_beta     89.94514925543662
_cell_angle_gamma    119.88852142968744

_space_group_name_H-M_alt    "P 1"
_space_group_IT_number       1

loop_
  _space_group_symop_operation_xyz
  'x, y, z'

loop_
  _atom_site_type_symbol
  _atom_site_label
  _atom_site_symmetry_multiplicity
  _atom_site_fract_x
  _atom_site_fract_y
  _atom_site_fract_z
  _atom_site_occupancy
  Ca  Ca1       1.0  0.5562257966010751  0.5761663813528572  0.7868411509004758  1.0000
  O   O1        1.0  0.9453595293392716  0.6027289138158928  0.0838863454413654  1.0000
  O   O2        1.0  0.1933659905276342  0.18726575289053654  0.08357298995467952  1.0000
  Ti  Ti1       1.0  0.8896894956237843  0.24329244713342227  0.28686030591625394  1.0000
  O   O3        1.0  0.945208116596979  0.9391685740523996  0.4901972907672084  1.0000
  O   O4        1.0  0.529737349418201  0.1869847776307795  0.4898823776157553  1.0000
  Si  Si1       1.0  0.22292411908399698  0.9094787013652624  0.2868937999296218  1.0000
  O   O5        1.0  0.19321767418796162  0.6019387422110075  0.4899366209041413  1.0000
  O   O6        1.0  0.5305354402122637  0.9392828984360242  0.0838422211351849  1.0000
