data_image0
_chemical_formula_structural       Ca2O2CaO2TiO3TiOSiO
_chemical_formula_sum              "Ca3 O9 Ti2 Si1"
_cell_length_a       5.8796788534600255
_cell_length_b       5.507468534239893
_cell_length_c       7.079660415649413
_cell_angle_alpha    92.77967112122002
_cell_angle_beta     107.97833000633105
_cell_angle_gamma    104.88988320321458

_space_group_name_H-M_alt    "P 1"
_space_group_IT_number       1

loop_
  _space_group_symop_operation_xyz
  'x, y, z'

loop_
  _atom_site_type_symbol
  _atom_site_label
  _atom_site_symmetry_multiplicity
  _atom_site_fract_x
  _atom_site_fract_y
  _atom_site_fract_z
  _atom_site_occupancy
  Ca  Ca1       1.0  0.2527895716608021  0.1798418874323276  0.9201331885152506  1.0000
  Ca  Ca2       1.0  0.24324244779449547  0.2779588410628461  0.41319830101855565  1.0000
  O   O1        1.0  0.8989631845311296  0.771821954521359  0.8731138939724482  1.0000
  O   O2        1.0  0.5672626208073256  0.7097158028966227  0.48499683656221715  1.0000
  Ca  Ca3       1.0  0.9338997193120556  0.6113601358196136  0.5741339121634633  1.0000
  O   O3        1.0  0.5795192222633274  0.9782592527526086  0.0010656331577261202  1.0000
  O   O4        1.0  0.3059271612269734  0.5004762297004748  0.7288077435742216  1.0000
  Ti  Ti1       1.0  0.6196851932356281  0.912437977001019  0.26915032416314055  1.0000
  O   O5        1.0  0.2854991038199069  0.9720976482790199  0.6338598558167664  1.0000
  O   O6        1.0  0.8248086448091674  0.19648233116074998  0.4180097340276963  1.0000
  O   O7        1.0  0.27549801000087304  0.9623523317643078  0.2057917890714679  1.0000
  Ti  Ti2       1.0  0.5168047331538549  0.8046805773348576  0.7410730293642281  1.0000
  O   O8        1.0  0.12795265033960576  0.4571897580511328  0.10887909699626494  1.0000
  Si  Si1       1.0  0.02663835523200522  0.7056095434892292  0.10256225109141974  1.0000
  O   O9        1.0  0.8444944656179969  0.7059408195242951  0.24011084952640704  1.0000
