data_image0
_chemical_formula_structural       Ca2O2SiTiO4
_chemical_formula_sum              "Ca2 O6 Si1 Ti1"
_cell_length_a       5.28350195115207
_cell_length_b       5.284998381577258
_cell_length_c       5.293242454528809
_cell_angle_alpha    119.78391061421964
_cell_angle_beta     90.1957762130079
_cell_angle_gamma    119.89802954871004

_space_group_name_H-M_alt    "P 1"
_space_group_IT_number       1

loop_
  _space_group_symop_operation_xyz
  'x, y, z'

loop_
  _atom_site_type_symbol
  _atom_site_label
  _atom_site_symmetry_multiplicity
  _atom_site_fract_x
  _atom_site_fract_y
  _atom_site_fract_z
  _atom_site_occupancy
  Ca  Ca1       1.0  0.16111599207061533  0.9592469056125201  0.45409913051842277  1.0000
  Ca  Ca2       1.0  0.6595986758681359  0.9514504504322505  0.9446070128622922  1.0000
  O   O1        1.0  0.6414290369819533  0.4546901565855484  0.9086486112408104  1.0000
  O   O2        1.0  0.672951232073706  0.40208548479069905  0.40597801225211155  1.0000
  Si  Si1       1.0  0.9103540173938169  0.45542501167902466  0.6993138977948433  1.0000
  Ti  Ti1       1.0  0.4103596938201901  0.4554103314581939  0.1993140894801964  1.0000
  O   O3        1.0  0.6986634150734647  0.9771045938145582  0.48891003210000644  1.0000
  O   O4        1.0  0.14776822049708901  0.5088439692730983  0.9925975255533864  1.0000
  O   O5        1.0  0.17925601911407757  0.45622376859261166  0.48988343593854944  1.0000
  O   O6        1.0  0.12201944443524478  0.9337987738004027  0.9095910289547653  1.0000
