data_image0
_chemical_formula_structural       TiOCa2SiO2TiO2SiO5
_chemical_formula_sum              "Ti2 O10 Ca2 Si2"
_cell_length_a       5.504660558159746
_cell_length_b       5.503904537689584
_cell_length_c       7.118599891662598
_cell_angle_alpha    104.25702475178495
_cell_angle_beta     104.19226220802143
_cell_angle_gamma    105.72011229425749

_space_group_name_H-M_alt    "P 1"
_space_group_IT_number       1

loop_
  _space_group_symop_operation_xyz
  'x, y, z'

loop_
  _atom_site_type_symbol
  _atom_site_label
  _atom_site_symmetry_multiplicity
  _atom_site_fract_x
  _atom_site_fract_y
  _atom_site_fract_z
  _atom_site_occupancy
  Ti  Ti1       1.0  0.3951626360524691  0.2622397687951138  0.19903457263929192  1.0000
  O   O1        1.0  0.017511386137265664  0.011499473095302406  0.10712503219877087  1.0000
  Ca  Ca1       1.0  0.06641914906318058  0.5904107719334409  0.9490271626314727  1.0000
  Ca  Ca2       1.0  0.7237122774807476  0.9340027387797342  0.44891787134455485  1.0000
  Si  Si1       1.0  0.07569902534299655  0.5818421655576306  0.44908802316946467  1.0000
  O   O2        1.0  0.7085268037805966  0.14917093042108037  0.8152935096840656  1.0000
  O   O3        1.0  0.46382375190328545  0.19326160543466003  0.4489483478245681  1.0000
  Ti  Ti2       1.0  0.3950585589878256  0.2623618916722506  0.6990541073973914  1.0000
  O   O4        1.0  0.08162886022595006  0.37529831784109247  0.5827232374051299  1.0000
  O   O5        1.0  0.28235420888924423  0.575907262016833  0.31555484362940905  1.0000
  Si  Si2       1.0  0.7145860899412573  0.9428909849135199  0.9490491348779395  1.0000
  O   O6        1.0  0.14404427850922602  0.8848934226041009  0.6071936622161948  1.0000
  O   O7        1.0  0.326159599733119  0.33114835854591046  0.9490810321907989  1.0000
  O   O8        1.0  0.7727060551678839  0.5129344553384683  0.2909873191900548  1.0000
  O   O9        1.0  0.6458246488050181  0.6396064268308084  0.7910828232778269  1.0000
  O   O10       1.0  0.5078584995444242  0.9486913937877339  0.08258491885114207  1.0000
