data_image0
_chemical_formula_structural       Ca2SiCaOSiCaOTiOTiO9
_chemical_formula_sum              "Ca4 Si2 O12 Ti2"
_cell_length_a       5.275435057500357
_cell_length_b       5.277396006487475
_cell_length_c       9.15473461151123
_cell_angle_alpha    73.29798266439404
_cell_angle_beta     73.33496204836287
_cell_angle_gamma    60.136723437223594

_space_group_name_H-M_alt    "P 1"
_space_group_IT_number       1

loop_
  _space_group_symop_operation_xyz
  'x, y, z'

loop_
  _atom_site_type_symbol
  _atom_site_label
  _atom_site_symmetry_multiplicity
  _atom_site_fract_x
  _atom_site_fract_y
  _atom_site_fract_z
  _atom_site_occupancy
  Ca  Ca1       1.0  0.9863909189305485  0.11545314415348876  0.0895822282389902  1.0000
  Ca  Ca2       1.0  0.48257591565192215  0.6115307270166804  0.6014787540662835  1.0000
  Si  Si1       1.0  0.10739397314522722  0.2365150583227392  0.7267528537609146  1.0000
  Ca  Ca3       1.0  0.234789979380911  0.36330966738529535  0.34546339897363015  1.0000
  O   O1        1.0  0.23597681374439564  0.9167818395291848  0.3465345789027083  1.0000
  Si  Si2       1.0  0.36126979447133306  0.49056367022381625  0.9642270595811647  1.0000
  Ca  Ca4       1.0  0.7340990843777014  0.86355577940486  0.8455153763051467  1.0000
  O   O2        1.0  0.2822296982566173  0.3151403220987967  0.8455748267178566  1.0000
  Ti  Ti1       1.0  0.6127408478264692  0.7414848996066312  0.21113376238086262  1.0000
  O   O3        1.0  0.4318575819106039  0.6578368482657593  0.08291421409848544  1.0000
  Ti  Ti2       1.0  0.8566683183174101  0.9852765861440498  0.47987447301597225  1.0000
  O   O4        1.0  0.6813191483882586  0.3624042626904211  0.34463066322198926  1.0000
  O   O5        1.0  0.4633485858745047  0.07109000464064215  0.6073582839849727  1.0000
  O   O6        1.0  0.790995753129061  0.8076409513713774  0.345248223707274  1.0000
  O   O7        1.0  0.18765171264642933  0.8630067665832605  0.844802474996453  1.0000
  O   O8        1.0  0.7344437313701617  0.4102497983863417  0.8460146199433332  1.0000
  O   O9        1.0  0.0043393469760354  0.5626340872047059  0.08225562177361394  1.0000
  O   O10       1.0  0.03518161753004484  0.5936054840748376  0.6087152640035196  1.0000
  O   O11       1.0  0.5268076478513928  0.13468389422051652  0.08356233448549202  1.0000
  O   O12       1.0  0.9401146910707957  0.1661740822954544  0.6080380191442277  1.0000
