data_image0
_chemical_formula_structural       SiCaTiOTiOSiO7
_chemical_formula_sum              "Si2 Ca1 Ti2 O9"
_cell_length_a       5.760210084480123
_cell_length_b       5.719783998413563
_cell_length_c       6.719189643859863
_cell_angle_alpha    90.09489430797188
_cell_angle_beta     88.03188353599913
_cell_angle_gamma    90.06329103563363

_space_group_name_H-M_alt    "P 1"
_space_group_IT_number       1

loop_
  _space_group_symop_operation_xyz
  'x, y, z'

loop_
  _atom_site_type_symbol
  _atom_site_label
  _atom_site_symmetry_multiplicity
  _atom_site_fract_x
  _atom_site_fract_y
  _atom_site_fract_z
  _atom_site_occupancy
  Si  Si1       1.0  0.402093633819725  0.3470261968905493  0.5046796911566949  1.0000
  Ca  Ca1       1.0  0.8512989927231668  0.34711016765931646  0.2522074032022841  1.0000
  Ti  Ti1       1.0  0.2910930472992023  0.3472773306299734  0.9997492059732443  1.0000
  O   O1        1.0  0.5913207982311806  0.5732390004063513  0.4802565461769587  1.0000
  Ti  Ti2       1.0  0.6102545277474378  0.8473935092370461  0.627228809041068  1.0000
  O   O2        1.0  0.35668453611465084  0.8472345177734556  0.7893329294506316  1.0000
  Si  Si2       1.0  0.09706036513769731  0.847024160530195  0.9059032649957905  1.0000
  O   O3        1.0  0.5910669524203805  0.1209199486120105  0.4800020042658709  1.0000
  O   O4        1.0  0.23072724254535115  0.3473488438095471  0.3228164887729836  1.0000
  O   O5        1.0  0.8862604410972365  0.8469981815895591  0.7455039884419621  1.0000
  O   O6        1.0  0.2702673519034511  0.34693453040672184  0.7191563045142129  1.0000
  O   O7        1.0  0.08251221224955453  0.082093957754239  0.04092728811964494  1.0000
  O   O8        1.0  0.08269620640768735  0.6124260529610688  0.0409438480909655  1.0000
  O   O9        1.0  0.5853459036291068  0.347268175067877  0.023905345832404435  1.0000
