data_image0
_chemical_formula_structural       TiOCaOSiTiOSiCaO
_chemical_formula_sum              "Ti2 O4 Ca2 Si2"
_cell_length_a       3.9516633038496547
_cell_length_b       3.9522902757228753
_cell_length_c       11.416815757751463
_cell_angle_alpha    89.97247684330682
_cell_angle_beta     89.99105495656119
_cell_angle_gamma    120.26532790832529

_space_group_name_H-M_alt    "P 1"
_space_group_IT_number       1

loop_
  _space_group_symop_operation_xyz
  'x, y, z'

loop_
  _atom_site_type_symbol
  _atom_site_label
  _atom_site_symmetry_multiplicity
  _atom_site_fract_x
  _atom_site_fract_y
  _atom_site_fract_z
  _atom_site_occupancy
  Ti  Ti1       1.0  0.5141423413432259  0.7857938921742915  0.3850878787820832  1.0000
  O   O1        1.0  0.4222439470158875  0.5328383753920233  0.5553946016732202  1.0000
  Ca  Ca1       1.0  0.8081055823519636  0.41661797690349744  0.14968622160002093  1.0000
  O   O2        1.0  0.4788078874345581  0.7465477294871424  0.22978304066781813  1.0000
  Si  Si1       1.0  0.1898133015603134  0.12901168808781974  0.4601281622088123  1.0000
  Ti  Ti2       1.0  0.09866551572067761  0.07790196022578828  0.9139141704246578  1.0000
  O   O3        1.0  0.18956164546781795  0.9166987129977175  0.7437323108560373  1.0000
  Si  Si2       1.0  0.42298445110089344  0.7480696909962363  0.8388135791812137  1.0000
  Ca  Ca2       1.0  0.8061890999002961  0.3227767475523663  0.6489803672736514  1.0000
  O   O4        1.0  0.1362443995682208  0.07474913416459954  0.06917399273796368  1.0000
