data_image0
_chemical_formula_structural       TiCa2OTiSi2O
_chemical_formula_sum              "Ti2 Ca2 O2 Si2"
_cell_length_a       3.955336058833815
_cell_length_b       3.95986836670886
_cell_length_c       9.671929359436037
_cell_angle_alpha    90.24409980037574
_cell_angle_beta     90.17096214322356
_cell_angle_gamma    90.21986630205198

_space_group_name_H-M_alt    "P 1"
_space_group_IT_number       1

loop_
  _space_group_symop_operation_xyz
  'x, y, z'

loop_
  _atom_site_type_symbol
  _atom_site_label
  _atom_site_symmetry_multiplicity
  _atom_site_fract_x
  _atom_site_fract_y
  _atom_site_fract_z
  _atom_site_occupancy
  Ti  Ti1       1.0  0.3198034373392423  0.9635072937596777  0.021277437257814797  1.0000
  Ca  Ca1       1.0  0.8195049566039133  0.4634115293195115  0.3225924456656999  1.0000
  Ca  Ca2       1.0  0.31932915481319035  0.9632576691818195  0.5931373731353548  1.0000
  O   O1        1.0  0.8197063486708105  0.9636231191861403  0.9578331932331456  1.0000
  Ti  Ti2       1.0  0.8196634941307089  0.4632026557470609  0.8945115657525478  1.0000
  Si  Si1       1.0  0.3193609394877259  0.9632008219337644  0.2664612871189678  1.0000
  Si  Si2       1.0  0.8194665125653755  0.46345170592812  0.6493240753962142  1.0000
  O   O2        1.0  0.32004741508894197  0.46315519595960736  0.958016602495899  1.0000
