data_image0
_chemical_formula_structural       SiO2Ca2O5TiOTiOSiO
_chemical_formula_sum              "Si2 O10 Ca2 Ti2"
_cell_length_a       5.495933627779418
_cell_length_b       5.496216424910671
_cell_length_c       7.1078362464904785
_cell_angle_alpha    104.38544501613703
_cell_angle_beta     104.37815049135763
_cell_angle_gamma    105.8153606248137

_space_group_name_H-M_alt    "P 1"
_space_group_IT_number       1

loop_
  _space_group_symop_operation_xyz
  'x, y, z'

loop_
  _atom_site_type_symbol
  _atom_site_label
  _atom_site_symmetry_multiplicity
  _atom_site_fract_x
  _atom_site_fract_y
  _atom_site_fract_z
  _atom_site_occupancy
  Si  Si1       1.0  0.9505566115397299  0.9883561455156109  0.9250553165031509  1.0000
  O   O1        1.0  0.1578892863431059  0.9837517002339917  0.7921966326423324  1.0000
  O   O2        1.0  0.5837175319981439  0.5575810467451565  0.2921284738473956  1.0000
  Ca  Ca1       1.0  0.9406570865870879  0.997866508711569  0.4251193661822381  1.0000
  Ca  Ca2       1.0  0.598015854711098  0.3407023762843279  0.9251268913028037  1.0000
  O   O3        1.0  0.2001913029796844  0.7385681157857082  0.4251010993839157  1.0000
  O   O4        1.0  0.33885970301876006  0.6004110004909372  0.9251896307194301  1.0000
  O   O5        1.0  0.5198366670930202  0.047092249135709356  0.2659982006119702  1.0000
  O   O6        1.0  0.9551111050402302  0.7813925996636933  0.05822462534857571  1.0000
  O   O7        1.0  0.019025964091761865  0.29183427103040066  0.08411252034778052  1.0000
  Ti  Ti1       1.0  0.2693876038427143  0.6694767576140073  0.17513081826456453  1.0000
  O   O8        1.0  0.38123223663590805  0.3550240454111874  0.558192356450944  1.0000
  Ti  Ti2       1.0  0.2695362932262227  0.6693407957038776  0.6751414722394075  1.0000
  O   O9        1.0  0.6472469376801057  0.9197079898930549  0.7656570921187932  1.0000
  Si  Si2       1.0  0.5884063685914472  0.350504252109352  0.42520689073282536  1.0000
  O   O10       1.0  0.8918311751739537  0.4190825338985855  0.584393540040667  1.0000
