data_image0
_chemical_formula_structural       O2CaSi2OTiO4
_chemical_formula_sum              "O7 Ca1 Si2 Ti1"
_cell_length_a       4.63994659543836
_cell_length_b       5.393496883597973
_cell_length_c       5.393718719482422
_cell_angle_alpha    102.66230558804166
_cell_angle_beta     96.92301432226155
_cell_angle_gamma    96.89619821192869

_space_group_name_H-M_alt    "P 1"
_space_group_IT_number       1

loop_
  _space_group_symop_operation_xyz
  'x, y, z'

loop_
  _atom_site_type_symbol
  _atom_site_label
  _atom_site_symmetry_multiplicity
  _atom_site_fract_x
  _atom_site_fract_y
  _atom_site_fract_z
  _atom_site_occupancy
  O   O1        1.0  0.9678881150553035  0.25468545364199285  0.5237306747778324  1.0000
  O   O2        1.0  0.9324723943457587  0.9581756976787152  0.9101737744133761  1.0000
  Ca  Ca1       1.0  0.6939875515876296  0.3423128520932108  0.18846019687432208  1.0000
  Si  Si1       1.0  0.11508857466564557  0.834247680701102  0.12313406776754644  1.0000
  Si  Si2       1.0  0.27384299906336534  0.4072458343206094  0.6960783083623885  1.0000
  O   O3        1.0  0.48929525226919335  0.20513919159303484  0.7695102018915202  1.0000
  Ti  Ti1       1.0  0.6944697346897841  0.9459298564736808  0.5844858416580923  1.0000
  O   O4        1.0  0.8995405891170598  0.7609581549949429  0.32507153088624  1.0000
  O   O5        1.0  0.42080486292275143  0.006802168876242632  0.2758614571894541  1.0000
  O   O6        1.0  0.45647938930212684  0.6199478159793153  0.5719809874743396  1.0000
  O   O7        1.0  0.19478565792583505  0.5490190222735971  0.9815075002609212  1.0000
