data_image0
_chemical_formula_structural       OSiCaO
_chemical_formula_sum              "O2 Si1 Ca1"
_cell_length_a       3.5610145231326626
_cell_length_b       3.5668858631450844
_cell_length_c       6.064669132232665
_cell_angle_alpha    72.80777314515475
_cell_angle_beta     72.86046333616642
_cell_angle_gamma    60.077770666166046

_space_group_name_H-M_alt    "P 1"
_space_group_IT_number       1

loop_
  _space_group_symop_operation_xyz
  'x, y, z'

loop_
  _atom_site_type_symbol
  _atom_site_label
  _atom_site_symmetry_multiplicity
  _atom_site_fract_x
  _atom_site_fract_y
  _atom_site_fract_z
  _atom_site_occupancy
  O   O1        1.0  0.8277983296224787  0.8322884154483527  0.37302415282608087  1.0000
  Si  Si1       1.0  0.7311219332078506  0.7352082697022377  0.6661921122990059  1.0000
  Ca  Ca1       1.0  0.2301616631653714  0.2351677243781375  0.16626088224229418  1.0000
  O   O2        1.0  0.6323208544009704  0.6380928521960214  0.9594249729145389  1.0000
