data_image0
_chemical_formula_structural       Ti4CaSiO2SiO
_chemical_formula_sum              "Ti4 Ca1 Si2 O3"
_cell_length_a       3.4327363528331154
_cell_length_b       3.4558025643230406
_cell_length_c       12.157732009887697
_cell_angle_alpha    98.14935422938457
_cell_angle_beta     98.10629683504621
_cell_angle_gamma    90.06986159484926

_space_group_name_H-M_alt    "P 1"
_space_group_IT_number       1

loop_
  _space_group_symop_operation_xyz
  'x, y, z'

loop_
  _atom_site_type_symbol
  _atom_site_label
  _atom_site_symmetry_multiplicity
  _atom_site_fract_x
  _atom_site_fract_y
  _atom_site_fract_z
  _atom_site_occupancy
  Ti  Ti1       1.0  0.3177714047184488  0.47515818048286795  0.10704072926220887  1.0000
  Ti  Ti2       1.0  0.504285635532061  0.16164280851346696  0.480854060690608  1.0000
  Ti  Ti3       1.0  0.8939767238159452  0.0514175156582806  0.2603165869708233  1.0000
  Ti  Ti4       1.0  0.00523906568337193  0.6626909400535583  0.4828062829878881  1.0000
  Ca  Ca1       1.0  0.7148066256515774  0.8716546362724777  0.900546289069507  1.0000
  Si  Si1       1.0  0.13048032395318712  0.28736443430722597  0.7315422685493985  1.0000
  O   O1        1.0  0.23771192516470996  0.39460034734391997  0.9468690404463742  1.0000
  O   O2        1.0  0.8117455099189407  0.9684165972189562  0.09607316258958741  1.0000
  Si  Si2       1.0  0.42530163924522296  0.5827326413600598  0.32306402091060643  1.0000
  O   O3        1.0  0.05564281430828807  0.21296221211404484  0.5833893736504241  1.0000
