data_image0
_chemical_formula_structural       CaTiCaO2SiOTiSiO7
_chemical_formula_sum              "Ca2 Ti2 O10 Si2"
_cell_length_a       5.499512340988569
_cell_length_b       5.499669964563926
_cell_length_c       7.117603302001953
_cell_angle_alpha    104.2940525215949
_cell_angle_beta     104.24353522664565
_cell_angle_gamma    105.78668168000644

_space_group_name_H-M_alt    "P 1"
_space_group_IT_number       1

loop_
  _space_group_symop_operation_xyz
  'x, y, z'

loop_
  _atom_site_type_symbol
  _atom_site_label
  _atom_site_symmetry_multiplicity
  _atom_site_fract_x
  _atom_site_fract_y
  _atom_site_fract_z
  _atom_site_occupancy
  Ca  Ca1       1.0  0.45353704833535796  0.47985849558036664  0.6724337933098379  1.0000
  Ti  Ti1       1.0  0.7821327661760941  0.15144731528041958  0.4220819769591966  1.0000
  Ca  Ca2       1.0  0.11085211000662705  0.823123681492247  0.17197734337882936  1.0000
  O   O1        1.0  0.6699769591706403  0.4655017832709985  0.03877218467343672  1.0000
  O   O2        1.0  0.8509088074539815  0.08244674210660156  0.17195618003634178  1.0000
  Si  Si1       1.0  0.10122635674129533  0.83231802150085  0.6719719002058228  1.0000
  O   O3        1.0  0.713361852281407  0.22044844984419038  0.6721204532169995  1.0000
  Ti  Ti2       1.0  0.7821596386313114  0.15147533930105536  0.9220771310636102  1.0000
  Si  Si2       1.0  0.46301663547420346  0.47058304150281155  0.17211816397800977  1.0000
  O   O4        1.0  0.032710242811901234  0.5290728867206846  0.5135563499202753  1.0000
  O   O5        1.0  0.8942592070259795  0.8374846226790511  0.8052975864602574  1.0000
  O   O6        1.0  0.4043470993197908  0.9011176370846801  0.8305288548428553  1.0000
  O   O7        1.0  0.4682170429460881  0.26361899980085884  0.3053657441021553  1.0000
  O   O8        1.0  0.15995354045334706  0.4019236053097161  0.013550062190724676  1.0000
  O   O9        1.0  0.09603698533186736  0.039117442934037946  0.5386252581798319  1.0000
  O   O10       1.0  0.5315720025311341  0.7737604015456987  0.33069007053621363  1.0000
