data_image0
_chemical_formula_structural       TiCaSiO2CaO4
_chemical_formula_sum              "Ti1 Ca2 Si1 O6"
_cell_length_a       5.302812611222706
_cell_length_b       5.304823360814562
_cell_length_c       5.305484771728516
_cell_angle_alpha    59.92407329328078
_cell_angle_beta     59.97249045242451
_cell_angle_gamma    59.971043626204256

_space_group_name_H-M_alt    "P 1"
_space_group_IT_number       1

loop_
  _space_group_symop_operation_xyz
  'x, y, z'

loop_
  _atom_site_type_symbol
  _atom_site_label
  _atom_site_symmetry_multiplicity
  _atom_site_fract_x
  _atom_site_fract_y
  _atom_site_fract_z
  _atom_site_occupancy
  Ti  Ti1       1.0  0.5769376044580252  0.4047239945443536  0.9753015054838291  1.0000
  Ca  Ca1       1.0  0.32687114638327824  0.15476408397242608  0.7249998107639102  1.0000
  Si  Si1       1.0  0.07693515993560185  0.90467118124437  0.47528896118257263  1.0000
  O   O1        1.0  0.316152325452692  0.1438039056655427  0.23612722563455524  1.0000
  O   O2        1.0  0.837688254906984  0.6654660495626836  0.714329858711319  1.0000
  Ca  Ca2       1.0  0.8270076315113501  0.6546147775522038  0.22540862531404324  1.0000
  O   O3        1.0  0.8377045811944497  0.1438614512552229  0.23602988783354997  1.0000
  O   O4        1.0  0.3161306467834518  0.6654889462374034  0.7144619076174467  1.0000
  O   O5        1.0  0.31599823150386913  0.6654613691780087  0.23608212839939594  1.0000
  O   O6        1.0  0.8377624773970341  0.14377790146162983  0.7144377966779383  1.0000
