data_image0
_chemical_formula_structural       CaTiO2CaSiO4
_chemical_formula_sum              "Ca2 Ti1 O6 Si1"
_cell_length_a       5.288547834804784
_cell_length_b       5.288005985596654
_cell_length_c       5.288187503814697
_cell_angle_alpha    60.17308578640211
_cell_angle_beta     60.11745315213713
_cell_angle_gamma    60.10925588789132

_space_group_name_H-M_alt    "P 1"
_space_group_IT_number       1

loop_
  _space_group_symop_operation_xyz
  'x, y, z'

loop_
  _atom_site_type_symbol
  _atom_site_label
  _atom_site_symmetry_multiplicity
  _atom_site_fract_x
  _atom_site_fract_y
  _atom_site_fract_z
  _atom_site_occupancy
  Ca  Ca1       1.0  0.9202547373437449  0.5709483641883019  0.7091860257547148  1.0000
  Ti  Ti1       1.0  0.6697847338461995  0.3203243744925243  0.45838276127434985  1.0000
  O   O1        1.0  0.40829669864258455  0.5359402495322434  0.7649746104813466  1.0000
  O   O2        1.0  0.9764028251005439  0.05809153192250664  0.6737751623344417  1.0000
  Ca  Ca2       1.0  0.4192745108108828  0.06985055228214374  0.20770781873370922  1.0000
  Si  Si1       1.0  0.16982516086170316  0.8203930379133317  0.958443914461265  1.0000
  O   O3        1.0  0.4540577960743481  0.014162302711876077  0.720235681538785  1.0000
  O   O4        1.0  0.9312802105065984  0.10485180474975873  0.15187541963326867  1.0000
  O   O5        1.0  0.8854682452513066  0.626640659142064  0.19654669487588405  1.0000
  O   O6        1.0  0.36316539903303363  0.5827371977945068  0.24300196214007236  1.0000
