data_image0
_chemical_formula_structural       TiCaOSi2O4TiO2
_chemical_formula_sum              "Ti2 Ca1 O7 Si2"
_cell_length_a       5.251220999177219
_cell_length_b       5.2486789160754155
_cell_length_c       8.878553390502931
_cell_angle_alpha    72.76251048953974
_cell_angle_beta     72.74365215868639
_cell_angle_gamma    59.83632577407148

_space_group_name_H-M_alt    "P 1"
_space_group_IT_number       1

loop_
  _space_group_symop_operation_xyz
  'x, y, z'

loop_
  _atom_site_type_symbol
  _atom_site_label
  _atom_site_symmetry_multiplicity
  _atom_site_fract_x
  _atom_site_fract_y
  _atom_site_fract_z
  _atom_site_occupancy
  Ti  Ti1       1.0  0.872827581324577  0.3856242926119729  0.6999367229605826  1.0000
  Ca  Ca1       1.0  0.299520633169505  0.8121832835111128  0.4209686409461672  1.0000
  O   O1        1.0  0.799601145669621  0.31210147920650333  0.9209653343886577  1.0000
  Si  Si1       1.0  0.5359549676816591  0.049053276759968775  0.7105704939840548  1.0000
  Si  Si2       1.0  0.06305840107878803  0.5753511686738128  0.13136225631409032  1.0000
  O   O2        1.0  0.8439266655321758  0.7691546281584181  0.6102957273244773  1.0000
  O   O3        1.0  0.34282103516456663  0.2675879665319336  0.23168218164563542  1.0000
  O   O4        1.0  0.7557071553323431  0.5032152773100202  0.23163442953773936  1.0000
  O   O5        1.0  0.6083241670111718  0.3563363562232976  0.6103438702258391  1.0000
  Ti  Ti2       1.0  0.7262379848973881  0.23874556946273004  0.14199619310527917  1.0000
  O   O6        1.0  0.9910834347547819  0.8545219792696018  0.23173745392840595  1.0000
  O   O7        1.0  0.2571196565870488  0.12091970027064335  0.6101037648564063  1.0000
