data_image0
_chemical_formula_structural       TiCaOTi2CaSiOCaSiCaSiOSi
_chemical_formula_sum              "Ti3 Ca4 O3 Si4"
_cell_length_a       3.9289918851295442
_cell_length_b       3.9268434470513456
_cell_length_c       16.270408630371094
_cell_angle_alpha    90.0294611122624
_cell_angle_beta     90.05041613097924
_cell_angle_gamma    89.95848861581909

_space_group_name_H-M_alt    "P 1"
_space_group_IT_number       1

loop_
  _space_group_symop_operation_xyz
  'x, y, z'

loop_
  _atom_site_type_symbol
  _atom_site_label
  _atom_site_symmetry_multiplicity
  _atom_site_fract_x
  _atom_site_fract_y
  _atom_site_fract_z
  _atom_site_occupancy
  Ti  Ti1       1.0  0.1505232843664535  0.39350843718405065  0.7134402474443918  1.0000
  Ca  Ca1       1.0  0.7274177375494544  0.3923932934291073  0.16774564120975308  1.0000
  O   O1        1.0  0.767105661767857  0.39276636071618715  0.02883224496742428  1.0000
  Ti  Ti2       1.0  0.20757877590716833  0.8924556467969433  0.27618145864067706  1.0000
  Ti  Ti3       1.0  0.6500951768464204  0.8934734271619897  0.713345544930105  1.0000
  Ca  Ca2       1.0  0.11087722688980377  0.8931270540524946  0.02285335090183697  1.0000
  Si  Si1       1.0  0.7084099947161224  0.8933032837093776  0.3762691284673471  1.0000
  O   O2        1.0  0.13397586995140132  0.8919235972894379  0.1609486201858386  1.0000
  Ca  Ca3       1.0  0.6592172167944079  0.3931880856460013  0.8860516188666291  1.0000
  Si  Si2       1.0  0.15671862347814058  0.8932891996583726  0.832642149589044  1.0000
  Ca  Ca4       1.0  0.6342662447068204  0.39322272009560627  0.5251425800717502  1.0000
  Si  Si3       1.0  0.14533111215097447  0.8934040301008507  0.6060903122785194  1.0000
  O   O3        1.0  0.6509523498542215  0.3935064403843616  0.733081906706046  1.0000
  Si  Si4       1.0  0.08956475090816671  0.39281081110511895  0.3718310990098132  1.0000
