data_image0
_chemical_formula_structural       O2TiOSiTiO2SiCaO4
_chemical_formula_sum              "O9 Ti2 Si2 Ca1"
_cell_length_a       5.6370836511897515
_cell_length_b       6.49744580224898
_cell_length_c       6.3549394607543945
_cell_angle_alpha    106.12637814166746
_cell_angle_beta     116.21390571551888
_cell_angle_gamma    90.01265949540291

_space_group_name_H-M_alt    "P 1"
_space_group_IT_number       1

loop_
  _space_group_symop_operation_xyz
  'x, y, z'

loop_
  _atom_site_type_symbol
  _atom_site_label
  _atom_site_symmetry_multiplicity
  _atom_site_fract_x
  _atom_site_fract_y
  _atom_site_fract_z
  _atom_site_occupancy
  O   O1        1.0  0.42865360393599317  0.8004854231755832  0.03821446721157326  1.0000
  O   O2        1.0  0.6371253478492582  0.8089910599093949  0.7249110838686917  1.0000
  Ti  Ti1       1.0  0.5713815301780624  0.8224666292936763  0.396064467653791  1.0000
  O   O3        1.0  0.8765792203178984  0.008578275238918636  0.5363788027328453  1.0000
  Si  Si1       1.0  0.6433992887134429  0.36002295893862274  0.09203759876998478  1.0000
  Ti  Ti2       1.0  0.13502293342864372  0.19546202890115247  0.5236886077388537  1.0000
  O   O4        1.0  0.8723510354493594  0.20913223040671725  0.1946734862370728  1.0000
  O   O5        1.0  0.7367822748209938  0.5085526493308286  0.9590123708463923  1.0000
  Si  Si2       1.0  0.5106865096992227  0.6574078931416499  0.827096144018294  1.0000
  Ca  Ca1       1.0  0.07726743133587517  0.008822387760723933  0.9597792200901234  1.0000
  O   O6        1.0  0.35060251140364274  0.21701778141112968  0.8815183347322055  1.0000
  O   O7        1.0  0.30019247172944563  0.009456232376387251  0.38341027317603554  1.0000
  O   O8        1.0  0.2476671375772331  0.4890208750802941  0.603223709592233  1.0000
  O   O9        1.0  0.6045147231363983  0.5288991064062281  0.31635203442229964  1.0000
