data_image0
_chemical_formula_structural       SiOCa2OSiO2CaTiO4
_chemical_formula_sum              "Si2 O8 Ca3 Ti1"
_cell_length_a       5.6061372795319295
_cell_length_b       6.9596765396467966
_cell_length_c       6.199014186859131
_cell_angle_alpha    112.1345555757454
_cell_angle_beta     94.17621252527667
_cell_angle_gamma    110.41293904297181

_space_group_name_H-M_alt    "P 1"
_space_group_IT_number       1

loop_
  _space_group_symop_operation_xyz
  'x, y, z'

loop_
  _atom_site_type_symbol
  _atom_site_label
  _atom_site_symmetry_multiplicity
  _atom_site_fract_x
  _atom_site_fract_y
  _atom_site_fract_z
  _atom_site_occupancy
  Si  Si1       1.0  0.08341437252859323  0.6859362483229949  0.6753545262821518  1.0000
  O   O1        1.0  0.5313586930829105  0.47495821024534174  0.047694910226104045  1.0000
  Ca  Ca1       1.0  0.5360136175555594  0.5571334918152238  0.43364581732761603  1.0000
  Ca  Ca2       1.0  0.6191139852401712  0.1710801560488609  0.02068831041651141  1.0000
  O   O2        1.0  0.21137454569378972  0.9372296346310974  0.6790229573410655  1.0000
  Si  Si2       1.0  0.6058945930428674  0.6805349100864041  0.9719276926626864  1.0000
  O   O3        1.0  0.32650549348887337  0.6219780033364828  0.7780635805752354  1.0000
  O   O4        1.0  0.701401708302843  0.9837512195520862  0.6562252521209081  1.0000
  Ca  Ca3       1.0  0.04063541535828824  0.18066780760451467  0.5479576072146848  1.0000
  Ti  Ti1       1.0  0.4475499296529522  0.9856094998703783  0.43583973874510373  1.0000
  O   O5        1.0  0.9434614823828827  0.46734043453604085  0.4174493367587281  1.0000
  O   O6        1.0  0.6878125074560433  0.9344135140186841  0.18270727639564144  1.0000
  O   O7        1.0  0.35740665895911217  0.17999390989858785  0.33124601900448797  1.0000
  O   O8        1.0  0.8410045624146458  0.6766824022909582  0.8214597225306021  1.0000
