data_image0
_chemical_formula_structural       O2CaSi
_chemical_formula_sum              "O2 Ca1 Si1"
_cell_length_a       3.1751345115239666
_cell_length_b       3.992892960605836
_cell_length_c       4.947061538696288
_cell_angle_alpha    97.36230442364021
_cell_angle_beta     90.1681959190065
_cell_angle_gamma    112.9449761165883

_space_group_name_H-M_alt    "P 1"
_space_group_IT_number       1

loop_
  _space_group_symop_operation_xyz
  'x, y, z'

loop_
  _atom_site_type_symbol
  _atom_site_label
  _atom_site_symmetry_multiplicity
  _atom_site_fract_x
  _atom_site_fract_y
  _atom_site_fract_z
  _atom_site_occupancy
  O   O1        1.0  0.010789053485549704  0.9877670331024067  0.5759434607832733  1.0000
  O   O2        1.0  0.49751264712182114  0.13723889974090456  0.08904541631095093  1.0000
  Ca  Ca1       1.0  0.2723792944687401  0.601567196323838  0.3193900014444083  1.0000
  Si  Si1       1.0  0.4592333492705114  0.264013488668171  0.7877283239335289  1.0000
