data_image0
_chemical_formula_structural       Ca2TiSiOSiCaO
_chemical_formula_sum              "Ca3 Ti1 Si2 O2"
_cell_length_a       3.7379652973528414
_cell_length_b       4.548682152922034
_cell_length_c       9.673287391662598
_cell_angle_alpha    90.07815352147546
_cell_angle_beta     90.01828692223332
_cell_angle_gamma    90.00287801422533

_space_group_name_H-M_alt    "P 1"
_space_group_IT_number       1

loop_
  _space_group_symop_operation_xyz
  'x, y, z'

loop_
  _atom_site_type_symbol
  _atom_site_label
  _atom_site_symmetry_multiplicity
  _atom_site_fract_x
  _atom_site_fract_y
  _atom_site_fract_z
  _atom_site_occupancy
  Ca  Ca1       1.0  0.7832523234258293  0.6333430497642414  0.9903294537439624  1.0000
  Ca  Ca2       1.0  0.7835837072949156  0.1333848183577727  0.7299726225233932  1.0000
  Ti  Ti1       1.0  0.7843850415128527  0.1332752994758973  0.23085188946345148  1.0000
  Si  Si1       1.0  0.2829204507441847  0.6334322249038999  0.23068091424695272  1.0000
  O   O1        1.0  0.784050447740598  0.13340338922766512  0.425362908271072  1.0000
  Si  Si2       1.0  0.2834882608324708  0.6333778698565679  0.730777192302846  1.0000
  Ca  Ca3       1.0  0.7833848467922853  0.6334534606385933  0.4709465696143068  1.0000
  O   O2        1.0  0.7838950695075431  0.13344212488677815  0.03657310858042608  1.0000
