data_image0
_chemical_formula_structural       SiTi3OCaO6
_chemical_formula_sum              "Si1 Ti3 O7 Ca1"
_cell_length_a       5.166159008031005
_cell_length_b       5.5699912140269285
_cell_length_c       6.123324871063233
_cell_angle_alpha    101.10976923168822
_cell_angle_beta     106.7650488039323
_cell_angle_gamma    93.62413485675073

_space_group_name_H-M_alt    "P 1"
_space_group_IT_number       1

loop_
  _space_group_symop_operation_xyz
  'x, y, z'

loop_
  _atom_site_type_symbol
  _atom_site_label
  _atom_site_symmetry_multiplicity
  _atom_site_fract_x
  _atom_site_fract_y
  _atom_site_fract_z
  _atom_site_occupancy
  Si  Si1       1.0  0.08764328345742856  0.6836557312197974  0.7951442072168096  1.0000
  Ti  Ti1       1.0  0.6298595851506074  0.2576381207132271  0.8047811214334913  1.0000
  Ti  Ti2       1.0  0.4478793276142383  0.6704059840058904  0.5653979891168088  1.0000
  Ti  Ti3       1.0  0.26305466071501676  0.24684060272532057  0.03120677847254487  1.0000
  O   O1        1.0  0.27050232524951096  0.4469824444976997  0.7715530240656749  1.0000
  Ca  Ca1       1.0  0.7530156034209434  0.8725416623389723  0.23341777903615965  1.0000
  O   O2        1.0  0.5737804383153389  0.9917887168871803  0.5503916841854285  1.0000
  O   O3        1.0  0.8867003202080117  0.17791129259697253  0.05267093666182536  1.0000
  O   O4        1.0  0.06349655513860687  0.7525068041525294  0.541557544780145  1.0000
  O   O5        1.0  0.29006013848937967  0.8936538010416228  0.01561553111544578  1.0000
  O   O6        1.0  0.4605150202945168  0.5008851420870055  0.28283961101389243  1.0000
  O   O7        1.0  0.7896352752789042  0.6233069914561306  0.8368750033817541  1.0000
