data_image0
_chemical_formula_structural       Ti2SiCaO6SiO
_chemical_formula_sum              "Ti2 Si2 Ca1 O7"
_cell_length_a       5.502441815422487
_cell_length_b       5.269118820882712
_cell_length_c       6.197503566741943
_cell_angle_alpha    93.41308216773588
_cell_angle_beta     82.91674744911022
_cell_angle_gamma    80.5426231170743

_space_group_name_H-M_alt    "P 1"
_space_group_IT_number       1

loop_
  _space_group_symop_operation_xyz
  'x, y, z'

loop_
  _atom_site_type_symbol
  _atom_site_label
  _atom_site_symmetry_multiplicity
  _atom_site_fract_x
  _atom_site_fract_y
  _atom_site_fract_z
  _atom_site_occupancy
  Ti  Ti1       1.0  0.03770811387686597  0.6873626690129879  0.12337945762338641  1.0000
  Ti  Ti2       1.0  0.5098487888603304  0.6476887936879661  0.2616953770892439  1.0000
  Si  Si1       1.0  0.021996868148058735  0.8860554612787623  0.6457604514468442  1.0000
  Ca  Ca1       1.0  0.4979248411659288  0.07749376803232019  0.8986049268254641  1.0000
  O   O1        1.0  0.8839197716289587  0.42569961887541913  0.2856213278558136  1.0000
  O   O2        1.0  0.8508447228434584  0.6585949069410612  0.6986492099851949  1.0000
  O   O3        1.0  0.17599996186301625  0.8273435228993251  0.3989418273224207  1.0000
  O   O4        1.0  0.8310178158101176  0.16652290688930046  0.6537676890923538  1.0000
  O   O5        1.0  0.16679186618370853  0.894913881970315  0.8587817888594731  1.0000
  O   O6        1.0  0.6971240975507286  0.8850644244263925  0.15367344295045576  1.0000
  Si  Si2       1.0  0.7276270959816691  0.4461625874681174  0.5441608020390477  1.0000
  O   O7        1.0  0.36082794671884577  0.4553822599063721  0.06962770083118355  1.0000
