data_image0
_chemical_formula_structural       Ca2SiOSiTiO7CaO
_chemical_formula_sum              "Ca3 Si2 O9 Ti1"
_cell_length_a       5.2240228498609484
_cell_length_b       5.223971383776093
_cell_length_c       6.424468040466308
_cell_angle_alpha    89.99539212682714
_cell_angle_beta     90.04217209189277
_cell_angle_gamma    120.0175327441173

_space_group_name_H-M_alt    "P 1"
_space_group_IT_number       1

loop_
  _space_group_symop_operation_xyz
  'x, y, z'

loop_
  _atom_site_type_symbol
  _atom_site_label
  _atom_site_symmetry_multiplicity
  _atom_site_fract_x
  _atom_site_fract_y
  _atom_site_fract_z
  _atom_site_occupancy
  Ca  Ca1       1.0  0.3076558864804859  0.052987166618631704  0.7639984810712633  1.0000
  Ca  Ca2       1.0  0.6409413047865126  0.7196198371588333  0.09173691802962539  1.0000
  Si  Si1       1.0  0.9742577530640867  0.38634406359432516  0.9242867333910093  1.0000
  O   O1        1.0  0.48132207943346794  0.4005075990729035  0.44182058552087006  1.0000
  Si  Si2       1.0  0.6410026570232071  0.7196406865892793  0.6035411588707937  1.0000
  Ti  Ti1       1.0  0.30768422679543544  0.053023348985190066  0.26395205524224274  1.0000
  O   O2        1.0  0.48141374852141794  0.8791919743612436  0.4417980750806875  1.0000
  O   O3        1.0  0.9600865719263656  0.8791980663436785  0.44182713616480396  1.0000
  O   O4        1.0  0.13387611183727965  0.22677859837661593  0.08608679950542386  1.0000
  O   O5        1.0  0.13388936787376307  0.7054379148582596  0.08609392678949496  1.0000
  O   O6        1.0  0.8076246988998922  0.05299739502342352  0.7639492772877395  1.0000
  O   O7        1.0  0.3075487889608776  0.552968152121381  0.763910417643035  1.0000
  O   O8        1.0  0.8075569500959464  0.5529416654589455  0.7639606213102921  1.0000
  Ca  Ca3       1.0  0.9744004909893712  0.3863673345175246  0.43607015825738743  1.0000
  O   O9        1.0  0.6552244399560396  0.22674131191623623  0.08610368418111883  1.0000
