data_image0
_chemical_formula_structural       TiSiOCaOCaOTiO3SiO2
_chemical_formula_sum              "Ti2 Si2 O8 Ca2"
_cell_length_a       3.7525034678624785
_cell_length_b       3.735864788105867
_cell_length_c       10.77661895751953
_cell_angle_alpha    89.95598193342873
_cell_angle_beta     90.02333443119832
_cell_angle_gamma    90.0289078665033

_space_group_name_H-M_alt    "P 1"
_space_group_IT_number       1

loop_
  _space_group_symop_operation_xyz
  'x, y, z'

loop_
  _atom_site_type_symbol
  _atom_site_label
  _atom_site_symmetry_multiplicity
  _atom_site_fract_x
  _atom_site_fract_y
  _atom_site_fract_z
  _atom_site_occupancy
  Ti  Ti1       1.0  0.8631663448112433  0.7680131807500243  0.8630718011211105  1.0000
  Si  Si1       1.0  0.8589034052507425  0.7710179959711349  0.22190652533761934  1.0000
  O   O1        1.0  0.3637439355985364  0.7673404137512456  0.8558757255472916  1.0000
  Ca  Ca1       1.0  0.3568865080868494  0.2700314540164113  0.7092701594173364  1.0000
  O   O2        1.0  0.9239197022983964  0.7653326653262253  0.3840689780310791  1.0000
  Ca  Ca2       1.0  0.36095108033289486  0.27142156161907105  0.059643158726234484  1.0000
  O   O3        1.0  0.885259114847846  0.7642381774454868  0.05946078385048446  1.0000
  Ti  Ti2       1.0  0.21965729633989717  0.305601254699898  0.3935667098897333  1.0000
  O   O4        1.0  0.39812843022316474  0.7422579255418316  0.2248506122794911  1.0000
  O   O5        1.0  0.863043032705715  0.26782986045360707  0.8546729646641283  1.0000
  O   O6        1.0  0.9062383395716882  0.25708128905154826  0.22710850267205626  1.0000
  Si  Si2       1.0  0.8506339049782444  0.769171348812378  0.5717820090883643  1.0000
  O   O7        1.0  0.8945180142296696  0.2512164106894496  0.5453447377559407  1.0000
  O   O8        1.0  0.39518772730673996  0.7363432575391762  0.5381953296908842  1.0000
