data_image0
_chemical_formula_structural       CaSi2O2
_chemical_formula_sum              "Ca1 Si2 O2"
_cell_length_a       3.453668301094517
_cell_length_b       3.4405040151810327
_cell_length_c       6.4380855560302725
_cell_angle_alpha    90.11828772713353
_cell_angle_beta     90.09702534244964
_cell_angle_gamma    89.97739457810776

_space_group_name_H-M_alt    "P 1"
_space_group_IT_number       1

loop_
  _space_group_symop_operation_xyz
  'x, y, z'

loop_
  _atom_site_type_symbol
  _atom_site_label
  _atom_site_symmetry_multiplicity
  _atom_site_fract_x
  _atom_site_fract_y
  _atom_site_fract_z
  _atom_site_occupancy
  Ca  Ca1       1.0  0.4256423140575672  0.38093226275879527  0.017006914269686948  1.0000
  Si  Si1       1.0  0.9253864920591393  0.8805268249898907  0.7186257507400988  1.0000
  Si  Si2       1.0  0.9263457611060716  0.8816920993059557  0.3485667198640222  1.0000
  O   O1        1.0  0.9262917085961124  0.38148093110549397  0.2630908623745015  1.0000
  O   O2        1.0  0.4261644763790878  0.881670989652031  0.2655574154117407  1.0000
