data_image0
_chemical_formula_structural       SiCaOTiOCaO6TiOSiO
_chemical_formula_sum              "Si2 Ca2 O10 Ti2"
_cell_length_a       5.5020684004558005
_cell_length_b       5.502240555796201
_cell_length_c       7.127931118011475
_cell_angle_alpha    104.16545957018862
_cell_angle_beta     104.19533568749682
_cell_angle_gamma    105.81710104526854

_space_group_name_H-M_alt    "P 1"
_space_group_IT_number       1

loop_
  _space_group_symop_operation_xyz
  'x, y, z'

loop_
  _atom_site_type_symbol
  _atom_site_label
  _atom_site_symmetry_multiplicity
  _atom_site_fract_x
  _atom_site_fract_y
  _atom_site_fract_z
  _atom_site_occupancy
  Si  Si1       1.0  0.09285931584872185  0.9308748130977162  0.10077315717208256  1.0000
  Ca  Ca1       1.0  0.08455819906492854  0.9391409271502279  0.6009310923063512  1.0000
  O   O1        1.0  0.29924632874281926  0.9250944062951038  0.9669753006822718  1.0000
  Ti  Ti1       1.0  0.4124841451333996  0.61122246606961  0.8508935541934903  1.0000
  O   O2        1.0  0.16154886005358005  0.2337780807855241  0.2586200453989408  1.0000
  Ca  Ca2       1.0  0.74030886272117  0.28342192188380694  0.10103022485430209  1.0000
  O   O3        1.0  0.525671962643407  0.29747959885907743  0.7346541111470247  1.0000
  O   O4        1.0  0.6634326281246903  0.9888198485907532  0.44298356595009636  1.0000
  O   O5        1.0  0.7262851343230248  0.49817290361918193  0.46710958131699315  1.0000
  O   O6        1.0  0.4807523086645047  0.5432598173577973  0.10089339000858635  1.0000
  O   O7        1.0  0.789917358177183  0.8624039909437848  0.942963179586028  1.0000
  O   O8        1.0  0.3442777704241845  0.6794993386785905  0.600796027534361  1.0000
  Ti  Ti2       1.0  0.4123981974301719  0.6113263367908963  0.3508659927169742  1.0000
  O   O9        1.0  0.09859404732803516  0.7243975974070712  0.23450832456108234  1.0000
  Si  Si2       1.0  0.7320268881443555  0.29169442904607173  0.6008718961008318  1.0000
  O   O10       1.0  0.03500776401937489  0.3602326530841789  0.7586333310214672  1.0000
