data_image0
_chemical_formula_structural       TiCaTi2O2CaO3SiO5
_chemical_formula_sum              "Ti3 Ca2 O10 Si1"
_cell_length_a       5.5990720605951845
_cell_length_b       5.605148160516475
_cell_length_c       7.241453170776366
_cell_angle_alpha    104.33030565190252
_cell_angle_beta     104.2312407464384
_cell_angle_gamma    105.58094528897911

_space_group_name_H-M_alt    "P 1"
_space_group_IT_number       1

loop_
  _space_group_symop_operation_xyz
  'x, y, z'

loop_
  _atom_site_type_symbol
  _atom_site_label
  _atom_site_symmetry_multiplicity
  _atom_site_fract_x
  _atom_site_fract_y
  _atom_site_fract_z
  _atom_site_occupancy
  Ti  Ti1       1.0  0.4731638531160787  0.734274083113719  0.6050229249018073  1.0000
  Ca  Ca1       1.0  0.1535672290446858  0.060907978377643855  0.36090607803294994  1.0000
  Ti  Ti2       1.0  0.480550872310017  0.7408922007937692  0.11393947540868558  1.0000
  Ti  Ti3       1.0  0.16041853248137133  0.054142573320457806  0.8607891400248249  1.0000
  O   O1        1.0  0.7853022422383837  0.618290611170418  0.22579022191168363  1.0000
  O   O2        1.0  0.41235866267936583  0.8020900287661025  0.36076561542921765  1.0000
  Ca  Ca2       1.0  0.8008053956210882  0.4139393996127408  0.8606113488678705  1.0000
  O   O3        1.0  0.09847867218515115  0.4895249114572542  0.5127787629075659  1.0000
  O   O4        1.0  0.540343430093774  0.6742428572449781  0.8607589370433915  1.0000
  O   O5        1.0  0.16203332337991522  0.8349174435501738  0.01200809903493246  1.0000
  Si  Si1       1.0  0.7962263967667598  0.41812108135838233  0.36033237436583576  1.0000
  O   O6        1.0  0.8365493722613706  0.9898083016682538  0.6935777640600317  1.0000
  O   O7        1.0  0.2244729004494239  0.3782781789489094  0.027543536327219034  1.0000
  O   O8        1.0  0.38004254289757367  0.052887146104200644  0.709640346645421  1.0000
  O   O9        1.0  0.5953710288585651  0.42908409804537206  0.4947026471369081  1.0000
  O   O10       1.0  0.7255052228035637  0.11569068344089031  0.20856664870971214  1.0000
