data_image0
_chemical_formula_structural       SiO2CaOTiSiO5
_chemical_formula_sum              "Si2 O8 Ca1 Ti1"
_cell_length_a       4.9718811182625435
_cell_length_b       5.141306814476591
_cell_length_c       6.354656219482422
_cell_angle_alpha    112.55465146982088
_cell_angle_beta     96.01891554901881
_cell_angle_gamma    90.22558309874746

_space_group_name_H-M_alt    "P 1"
_space_group_IT_number       1

loop_
  _space_group_symop_operation_xyz
  'x, y, z'

loop_
  _atom_site_type_symbol
  _atom_site_label
  _atom_site_symmetry_multiplicity
  _atom_site_fract_x
  _atom_site_fract_y
  _atom_site_fract_z
  _atom_site_occupancy
  Si  Si1       1.0  0.2374562174446845  0.4154240790949785  0.5678097288160633  1.0000
  O   O1        1.0  0.0031606718928151446  0.18825485901520245  0.6097998322436813  1.0000
  O   O2        1.0  0.44572693569656424  0.14237923965514315  0.48739005946349845  1.0000
  Ca  Ca1       1.0  0.009550056041824366  0.39619300814741615  0.026335044876822533  1.0000
  O   O3        1.0  0.31779603370783743  0.602793814375416  0.8535839602152622  1.0000
  Ti  Ti1       1.0  0.746993882962597  0.8757700076123061  0.5058510930502338  1.0000
  Si  Si2       1.0  0.5288486197638094  0.883286501113424  0.9999839757995894  1.0000
  O   O4        1.0  0.993046125697963  0.5659966744332636  0.45140800067793296  1.0000
  O   O5        1.0  0.3275142962203413  0.13334449764284778  0.1252332296440182  1.0000
  O   O6        1.0  0.4599210752265011  0.6041599880980646  0.4771184139025581  1.0000
  O   O7        1.0  0.716100572820879  0.9846259676215918  0.8443328033302447  1.0000
  O   O8        1.0  0.7322478752688916  0.7840891028271341  0.17417902742358618  1.0000
