data_image0
_chemical_formula_structural       Si2TiSiO2Ca2O9Si
_chemical_formula_sum              "Si4 Ti1 O11 Ca2"
_cell_length_a       5.18640700375509
_cell_length_b       6.290946304649601
_cell_length_c       8.37440299987793
_cell_angle_alpha    74.26546424401418
_cell_angle_beta     89.37610569357825
_cell_angle_gamma    93.29323975665186

_space_group_name_H-M_alt    "P 1"
_space_group_IT_number       1

loop_
  _space_group_symop_operation_xyz
  'x, y, z'

loop_
  _atom_site_type_symbol
  _atom_site_label
  _atom_site_symmetry_multiplicity
  _atom_site_fract_x
  _atom_site_fract_y
  _atom_site_fract_z
  _atom_site_occupancy
  Si  Si1       1.0  0.7009978855271873  0.42947373321147625  0.34449205026265517  1.0000
  Si  Si2       1.0  0.6481525768593924  0.2550774701331707  0.7023739584310125  1.0000
  Ti  Ti1       1.0  0.14464992205965657  0.4031272010193258  0.9224344452239449  1.0000
  Si  Si3       1.0  0.6621020498524958  0.7523970836362701  0.9938804128301423  1.0000
  O   O1        1.0  0.9363890819068564  0.27199624235373904  0.7727117927283552  1.0000
  O   O2        1.0  0.11499699538756061  0.9380193110987857  0.4462581695625195  1.0000
  Ca  Ca1       1.0  0.16343895885728615  0.9487368932636173  0.7757436287440672  1.0000
  Ca  Ca2       1.0  0.6470541406778825  0.8638215421603535  0.4460883867131706  1.0000
  O   O3        1.0  0.3808464446354503  0.6324067358944832  0.9488351195959768  1.0000
  O   O4        1.0  0.5948911930396475  0.03127273247440194  0.6430479270030621  1.0000
  O   O5        1.0  0.4126789504600368  0.27262341451719985  0.8245237987339592  1.0000
  O   O6        1.0  0.4972963346067937  0.23604574895510194  0.3085259389834843  1.0000
  O   O7        1.0  0.10879748400420904  0.17806133035118085  0.11853820756769289  1.0000
  O   O8        1.0  0.0006435558958902459  0.36060820011186706  0.3538208922030857  1.0000
  O   O9        1.0  0.8830146489549497  0.6018333053434823  0.9286803404089914  1.0000
  O   O10       1.0  0.6632839001233738  0.666906558337967  0.2142626454685293  1.0000
  O   O11       1.0  0.6322577967244383  0.4716998712846564  0.527500562910153  1.0000
  Si  Si4       1.0  0.17701495793808905  0.17220626796240357  0.3092873249751457  1.0000
