data_image0
_chemical_formula_structural       SiTiO2
_chemical_formula_sum              "Si1 Ti1 O2"
_cell_length_a       2.8588511315000664
_cell_length_b       2.8604882007417287
_cell_length_c       6.2594032287597665
_cell_angle_alpha    77.17645938788024
_cell_angle_beta     77.06349461047702
_cell_angle_gamma    60.51882543151

_space_group_name_H-M_alt    "P 1"
_space_group_IT_number       1

loop_
  _space_group_symop_operation_xyz
  'x, y, z'

loop_
  _atom_site_type_symbol
  _atom_site_label
  _atom_site_symmetry_multiplicity
  _atom_site_fract_x
  _atom_site_fract_y
  _atom_site_fract_z
  _atom_site_occupancy
  Si  Si1       1.0  0.3510671884583144  0.4225732811690851  0.38882464979483433  1.0000
  Ti  Ti1       1.0  0.8510162185309451  0.9225873263634307  0.8888393937667943  1.0000
  O   O1        1.0  0.25258308037127275  0.32383321517073654  0.6866874137201666  1.0000
  O   O2        1.0  0.44942600583475933  0.5213317925139617  0.09101500683888343  1.0000
