data_image0
_chemical_formula_structural       OTiCaSiO4TiOCaO4
_chemical_formula_sum              "O10 Ti2 Ca2 Si1"
_cell_length_a       5.579761706724353
_cell_length_b       5.483709478454194
_cell_length_c       7.337261199951171
_cell_angle_alpha    101.9834530019471
_cell_angle_beta     104.52654451787672
_cell_angle_gamma    107.00417409507324

_space_group_name_H-M_alt    "P 1"
_space_group_IT_number       1

loop_
  _space_group_symop_operation_xyz
  'x, y, z'

loop_
  _atom_site_type_symbol
  _atom_site_label
  _atom_site_symmetry_multiplicity
  _atom_site_fract_x
  _atom_site_fract_y
  _atom_site_fract_z
  _atom_site_occupancy
  O   O1        1.0  0.9018933593118686  0.40132953922394693  0.40737960257646594  1.0000
  Ti  Ti1       1.0  0.27315011966735087  0.7236027630618052  0.9812883918466971  1.0000
  Ca  Ca1       1.0  0.6364187887993799  0.35855345940788563  0.824893294104363  1.0000
  Si  Si1       1.0  0.615331549959385  0.3795718657713731  0.25889563662518256  1.0000
  O   O2        1.0  0.3403824110088091  0.5688707995438296  0.7536543370348393  1.0000
  O   O3        1.0  0.9806313884911153  0.7851619924155623  0.8946531384145394  1.0000
  O   O4        1.0  0.4129095273627888  0.3745739900944301  0.38714425204240943  1.0000
  O   O5        1.0  0.2594671318284832  0.9753144601632749  0.5626693526839346  1.0000
  Ti  Ti2       1.0  0.26810913703530687  0.6178192095522108  0.5059615780113665  1.0000
  O   O6        1.0  0.5236984585183222  0.9704791409331552  0.5604063676221042  1.0000
  Ca  Ca2       1.0  0.9634759506061523  0.00848603065829483  0.206634342161892  1.0000
  O   O7        1.0  0.1701460206430634  0.658870956563297  0.2117001785043908  1.0000
  O   O8        1.0  0.5305776954736571  0.08697292798990135  0.08769310801608354  1.0000
  O   O9        1.0  0.06293655121234658  0.4045082164716445  0.050911114908991126  1.0000
  O   O10       1.0  0.628861488956548  0.6030075289384514  0.14177131596772652  1.0000
