data_image0
_chemical_formula_structural       OCaSiO
_chemical_formula_sum              "O2 Ca1 Si1"
_cell_length_a       3.506177082775655
_cell_length_b       3.510828907592456
_cell_length_c       6.033303737640381
_cell_angle_alpha    73.13045159241075
_cell_angle_beta     73.13364135037929
_cell_angle_gamma    60.32391036807569

_space_group_name_H-M_alt    "P 1"
_space_group_IT_number       1

loop_
  _space_group_symop_operation_xyz
  'x, y, z'

loop_
  _atom_site_type_symbol
  _atom_site_label
  _atom_site_symmetry_multiplicity
  _atom_site_fract_x
  _atom_site_fract_y
  _atom_site_fract_z
  _atom_site_occupancy
  O   O1        1.0  0.8648099846625265  0.09273005233158245  0.2267598271403508  1.0000
  Ca  Ca1       1.0  0.285381285567744  0.48542068718604464  0.9967641626529626  1.0000
  Si  Si1       1.0  0.9085309288896779  0.7703161437629035  0.4962446173902674  1.0000
  O   O2        1.0  0.6870459603442762  0.9102911624927672  0.765931741429389  1.0000
