data_image0
_chemical_formula_structural       TiOSiCaSiO7
_chemical_formula_sum              "Ti1 O8 Si2 Ca1"
_cell_length_a       5.646136286810959
_cell_length_b       5.646932828473837
_cell_length_c       5.648748874664307
_cell_angle_alpha    106.43584736477482
_cell_angle_beta     106.52188685778557
_cell_angle_gamma    115.4811925069353

_space_group_name_H-M_alt    "P 1"
_space_group_IT_number       1

loop_
  _space_group_symop_operation_xyz
  'x, y, z'

loop_
  _atom_site_type_symbol
  _atom_site_label
  _atom_site_symmetry_multiplicity
  _atom_site_fract_x
  _atom_site_fract_y
  _atom_site_fract_z
  _atom_site_occupancy
  Ti  Ti1       1.0  0.2675658332687981  0.612893826119655  0.47846928597411137  1.0000
  O   O1        1.0  0.802593544547734  0.4255431358806903  0.7562700478795014  1.0000
  Si  Si1       1.0  0.6976265936692754  0.10940664988774879  0.512455213175688  1.0000
  Ca  Ca1       1.0  0.9491971395989587  0.8821471751331874  0.033826439105608674  1.0000
  Si  Si2       1.0  0.4251030081163514  0.31543579397916155  0.9486391524362572  1.0000
  O   O2        1.0  0.7893129581962995  0.48252414681332584  0.14624178706193747  1.0000
  O   O3        1.0  0.2969301475617077  0.37138797284624414  0.17694215499843413  1.0000
  O   O4        1.0  0.4018490019769212  0.517177987884354  0.7910626726901627  1.0000
  O   O5        1.0  0.26203609608343864  0.9566763287868226  0.7611280952954742  1.0000
  O   O6        1.0  0.34083784427568525  0.8973824431194809  0.30898047000200857  1.0000
  O   O7        1.0  0.7025634351434279  0.8902371729737932  0.6478147159929262  1.0000
  O   O8        1.0  0.9058126649643906  0.19965747153802899  0.36482034278069975  1.0000
