data_image0
_chemical_formula_structural       SiO3CaTiSiO5
_chemical_formula_sum              "Si2 O8 Ca1 Ti1"
_cell_length_a       4.9720048817828
_cell_length_b       5.176735128836561
_cell_length_c       8.213111877441406
_cell_angle_alpha    86.22169913748094
_cell_angle_beta     64.79071087935984
_cell_angle_gamma    68.70332718963967

_space_group_name_H-M_alt    "P 1"
_space_group_IT_number       1

loop_
  _space_group_symop_operation_xyz
  'x, y, z'

loop_
  _atom_site_type_symbol
  _atom_site_label
  _atom_site_symmetry_multiplicity
  _atom_site_fract_x
  _atom_site_fract_y
  _atom_site_fract_z
  _atom_site_occupancy
  Si  Si1       1.0  0.780056737380211  0.2498430221169452  0.6775147461546888  1.0000
  O   O1        1.0  0.6008565537675074  0.16804607979642072  0.8853768419055024  1.0000
  O   O2        1.0  0.09496623783616699  0.08831086618657667  0.15861132784978296  1.0000
  O   O3        1.0  0.629598889166452  0.6093274376828353  0.26796746884152906  1.0000
  Ca  Ca1       1.0  0.5674211258743748  0.7394607136587941  0.9976772498686466  1.0000
  Ti  Ti1       1.0  0.2583607277808304  0.5838056646927257  0.4940047635745253  1.0000
  Si  Si2       1.0  0.011475879278777416  0.417594980558177  0.1931583100085784  1.0000
  O   O4        1.0  0.18157994168740965  0.5407587462489104  0.9974540084141015  1.0000
  O   O5        1.0  0.14851784078672622  0.4728472241972444  0.3304584927872041  1.0000
  O   O6        1.0  0.8948348397664109  0.5017678291002069  0.6952478991754704  1.0000
  O   O7        1.0  0.5402994177687913  0.35300113407248274  0.579392382920754  1.0000
  O   O8        1.0  0.07864769022940295  0.9556706187177915  0.5722910219983293  1.0000
