data_image0
_chemical_formula_structural       CaSiTiO
_chemical_formula_sum              "Ca1 Si1 Ti1 O1"
_cell_length_a       3.204380105764172
_cell_length_b       3.206374425874691
_cell_length_c       7.233553886413575
_cell_angle_alpha    77.16949950762788
_cell_angle_beta     77.17967648604721
_cell_angle_gamma    59.95755866927327

_space_group_name_H-M_alt    "P 1"
_space_group_IT_number       1

loop_
  _space_group_symop_operation_xyz
  'x, y, z'

loop_
  _atom_site_type_symbol
  _atom_site_label
  _atom_site_symmetry_multiplicity
  _atom_site_fract_x
  _atom_site_fract_y
  _atom_site_fract_z
  _atom_site_occupancy
  Ca  Ca1       1.0  0.8905283054985995  0.8826099018684339  0.41833812959428895  1.0000
  Si  Si1       1.0  0.11061368123028816  0.10242437743486993  0.7582801758637177  1.0000
  Ti  Ti1       1.0  0.35517767961534685  0.34719805416650523  0.023895183631964096  1.0000
  O   O1        1.0  0.6265128372820703  0.618525398676105  0.21043225588571868  1.0000
