data_image0
_chemical_formula_structural       TiCaO2Si2O4
_chemical_formula_sum              "Ti1 Ca1 O6 Si2"
_cell_length_a       4.907366949730757
_cell_length_b       5.071054056091005
_cell_length_c       5.990365982055665
_cell_angle_alpha    96.32837800270242
_cell_angle_beta     108.2823852472563
_cell_angle_gamma    115.02377251392159

_space_group_name_H-M_alt    "P 1"
_space_group_IT_number       1

loop_
  _space_group_symop_operation_xyz
  'x, y, z'

loop_
  _atom_site_type_symbol
  _atom_site_label
  _atom_site_symmetry_multiplicity
  _atom_site_fract_x
  _atom_site_fract_y
  _atom_site_fract_z
  _atom_site_occupancy
  Ti  Ti1       1.0  0.28328113665628657  0.5177853278370865  0.17719980215656153  1.0000
  Ca  Ca1       1.0  0.24199353728641185  0.9969990567459908  0.6159085224798967  1.0000
  O   O1        1.0  0.4431682433714331  0.2545470383555574  0.3296829110175259  1.0000
  O   O2        1.0  0.7571280255569738  0.08782823161343498  0.014678948018039909  1.0000
  Si  Si1       1.0  0.7232989082692458  0.7324620249425813  0.8623830450489294  1.0000
  Si  Si2       1.0  0.7215855250406727  0.18816843543951586  0.28239392740550745  1.0000
  O   O3        1.0  0.6968090682656634  0.8951250617252817  0.3856075077316271  1.0000
  O   O4        1.0  0.0636173524044188  0.7147778813775718  0.009319580507844094  1.0000
  O   O5        1.0  0.4358675082672474  0.45604674236697174  0.9269638933113914  1.0000
  O   O6        1.0  0.07464067303375385  0.5011732977754937  0.42000851036679776  1.0000
