data_image0
_chemical_formula_structural       TiOCaO3SiO2
_chemical_formula_sum              "Ti1 O6 Ca1 Si1"
_cell_length_a       5.007119908058394
_cell_length_b       5.024463684966327
_cell_length_c       5.0272908210754395
_cell_angle_alpha    119.87890335657895
_cell_angle_beta     89.8867033319436
_cell_angle_gamma    89.93004769576298

_space_group_name_H-M_alt    "P 1"
_space_group_IT_number       1

loop_
  _space_group_symop_operation_xyz
  'x, y, z'

loop_
  _atom_site_type_symbol
  _atom_site_label
  _atom_site_symmetry_multiplicity
  _atom_site_fract_x
  _atom_site_fract_y
  _atom_site_fract_z
  _atom_site_occupancy
  Ti  Ti1       1.0  0.7232583007695275  0.7737978087459442  0.3956583103056465  1.0000
  O   O1        1.0  0.5198791850479962  0.13362352391458227  0.4530064901106668  1.0000
  Ca  Ca1       1.0  0.22339101714474036  0.1070435146787343  0.06250989180696691  1.0000
  O   O2        1.0  0.9266447813760434  0.1323514233280354  0.6984518068270877  1.0000
  O   O3        1.0  0.9266176716143512  0.7167740960391116  0.03572931655766971  1.0000
  O   O4        1.0  0.5198641152158724  0.47125473790760397  0.03718714099039678  1.0000
  Si  Si1       1.0  0.723309036584882  0.4403019880825024  0.7293131794210512  1.0000
  O   O5        1.0  0.5195949457638019  0.7171799488880294  0.6988082995715323  1.0000
  O   O6        1.0  0.9269778482713591  0.4704803265275451  0.4521124075141826  1.0000
