data_image0
_chemical_formula_structural       CaSiTiO
_chemical_formula_sum              "Ca1 Si1 Ti1 O1"
_cell_length_a       3.188059645197632
_cell_length_b       3.189787229423846
_cell_length_c       7.1058411598205575
_cell_angle_alpha    77.06226563050954
_cell_angle_beta     77.09278919459949
_cell_angle_gamma    60.09717616035023

_space_group_name_H-M_alt    "P 1"
_space_group_IT_number       1

loop_
  _space_group_symop_operation_xyz
  'x, y, z'

loop_
  _atom_site_type_symbol
  _atom_site_label
  _atom_site_symmetry_multiplicity
  _atom_site_fract_x
  _atom_site_fract_y
  _atom_site_fract_z
  _atom_site_occupancy
  Ca  Ca1       1.0  0.24370168982550805  0.5693631308821983  0.16958195362301426  1.0000
  Si  Si1       1.0  0.023108893426341048  0.34858045544294797  0.8321881051312234  1.0000
  Ti  Ti1       1.0  0.7782182759335377  0.10367849908328183  0.5661123655684253  1.0000
  O   O1        1.0  0.5076410195938682  0.8332228716722958  0.3782263659004934  1.0000
