data_image0
_chemical_formula_structural       Ca2O4Si2O2
_chemical_formula_sum              "Ca2 O6 Si2"
_cell_length_a       5.118651298368249
_cell_length_b       5.1189568831423955
_cell_length_c       5.119453430175782
_cell_angle_alpha    60.10236024456016
_cell_angle_beta     60.053872767318204
_cell_angle_gamma    59.9475682997357

_space_group_name_H-M_alt    "P 1"
_space_group_IT_number       1

loop_
  _space_group_symop_operation_xyz
  'x, y, z'

loop_
  _atom_site_type_symbol
  _atom_site_label
  _atom_site_symmetry_multiplicity
  _atom_site_fract_x
  _atom_site_fract_y
  _atom_site_fract_z
  _atom_site_occupancy
  Ca  Ca1       1.0  0.3259327649160796  0.05898414122096206  0.2868500188006325  1.0000
  Ca  Ca2       1.0  0.82568554048562  0.5591141382186476  0.7871760267163729  1.0000
  O   O1        1.0  0.2976298483075628  0.08707300584838204  0.7904752233519858  1.0000
  O   O2        1.0  0.8540269677030107  0.5308319457621283  0.2839818935362229  1.0000
  O   O3        1.0  0.326022806761566  0.5898627917852843  0.756173149820557  1.0000
  O   O4        1.0  0.35383670789659843  0.5560144251235585  0.2590959659885789  1.0000
  Si  Si1       1.0  0.07585286282070655  0.8089930384435491  0.03711364379179806  1.0000
  Si  Si2       1.0  0.5758218066261886  0.30908599238820816  0.5371114853035807  1.0000
  O   O5        1.0  0.8256353200729171  0.028143216258386457  0.31813652224531874  1.0000
  O   O6        1.0  0.7978646729694799  0.062074495115195284  0.8151958443904003  1.0000
