data_image0
_chemical_formula_structural       CaSiOSi
_chemical_formula_sum              "Ca1 Si2 O1"
_cell_length_a       3.8079333091470495
_cell_length_b       3.809797764041949
_cell_length_c       5.6534247398376465
_cell_angle_alpha    89.99938778744935
_cell_angle_beta     89.95070902913054
_cell_angle_gamma    120.10255308124697

_space_group_name_H-M_alt    "P 1"
_space_group_IT_number       1

loop_
  _space_group_symop_operation_xyz
  'x, y, z'

loop_
  _atom_site_type_symbol
  _atom_site_label
  _atom_site_symmetry_multiplicity
  _atom_site_fract_x
  _atom_site_fract_y
  _atom_site_fract_z
  _atom_site_occupancy
  Ca  Ca1       1.0  0.994489670634864  0.0427008881752085  0.23682763610865745  1.0000
  Si  Si1       1.0  0.3280371729252848  0.7094506108674431  0.8347648123056485  1.0000
  O   O1        1.0  0.6613791253803625  0.37591192484560587  0.3712745217755044  1.0000
  Si  Si2       1.0  0.6612712474534107  0.37616389006660794  0.6698598385180791  1.0000
