data_image0
_chemical_formula_structural       Ca2Ti2CaTiO5SiCaO5
_chemical_formula_sum              "Ca4 Ti3 O10 Si1"
_cell_length_a       5.725023524949929
_cell_length_b       6.160204381198814
_cell_length_c       7.067737579345703
_cell_angle_alpha    89.16133720265978
_cell_angle_beta     90.04980141106638
_cell_angle_gamma    82.26002626139116

_space_group_name_H-M_alt    "P 1"
_space_group_IT_number       1

loop_
  _space_group_symop_operation_xyz
  'x, y, z'

loop_
  _atom_site_type_symbol
  _atom_site_label
  _atom_site_symmetry_multiplicity
  _atom_site_fract_x
  _atom_site_fract_y
  _atom_site_fract_z
  _atom_site_occupancy
  Ca  Ca1       1.0  0.0003181753656993358  0.7875150629616177  0.4944784888497365  1.0000
  Ca  Ca2       1.0  0.41429455780712016  0.12791295597791497  0.5347418452165084  1.0000
  Ti  Ti1       1.0  0.5097866642488752  0.7664785208654777  0.23853801318400739  1.0000
  Ti  Ti2       1.0  0.5175451689963885  0.6586801986297808  0.8110393433746805  1.0000
  Ca  Ca3       1.0  0.9825172361736563  0.8104791247264689  0.03487289145226523  1.0000
  Ti  Ti3       1.0  0.9256731463451667  0.254849640889317  0.2773648646264121  1.0000
  O   O1        1.0  0.9892720969490844  0.21042972420143966  0.9676550723538844  1.0000
  O   O2        1.0  0.41235230857762284  0.7528690227660101  0.5661839660802443  1.0000
  O   O3        1.0  0.3432698638325094  0.5909872027077739  0.0414338563427012  1.0000
  O   O4        1.0  0.5898167478614729  0.8909078810762989  0.9591800837828942  1.0000
  O   O5        1.0  0.8889602650996071  0.5906287999099554  0.7608504115145954  1.0000
  Si  Si1       1.0  0.8777416625779029  0.32196675617402126  0.7692981620772201  1.0000
  Ca  Ca4       1.0  0.4101256305788165  0.21864478279192479  0.053162014622014336  1.0000
  O   O6        1.0  0.703510538902321  0.0260242564161431  0.3075788858500009  1.0000
  O   O7        1.0  5.650868192843083e-05  0.1955332545391812  0.5836504751648492  1.0000
  O   O8        1.0  0.5871395831073976  0.32014246056031104  0.7635949019141784  1.0000
  O   O9        1.0  0.20805264261414969  0.9951440521646904  0.26396278741358836  1.0000
  O   O10       1.0  0.8366153485619248  0.5678900793797308  0.26922436151152485  1.0000
