data_image0
_chemical_formula_structural       CaSi2O
_chemical_formula_sum              "Ca1 Si2 O1"
_cell_length_a       3.8000281269971428
_cell_length_b       3.804512573946687
_cell_length_c       5.642849445343018
_cell_angle_alpha    90.01123816599565
_cell_angle_beta     90.04146175345328
_cell_angle_gamma    120.0313639865767

_space_group_name_H-M_alt    "P 1"
_space_group_IT_number       1

loop_
  _space_group_symop_operation_xyz
  'x, y, z'

loop_
  _atom_site_type_symbol
  _atom_site_label
  _atom_site_symmetry_multiplicity
  _atom_site_fract_x
  _atom_site_fract_y
  _atom_site_fract_z
  _atom_site_occupancy
  Ca  Ca1       1.0  0.18492791072165135  0.028437721231965953  0.8785300487963201  1.0000
  Si  Si1       1.0  0.8515225207456648  0.36185966416192933  0.44496124848477725  1.0000
  Si  Si2       1.0  0.5183103000093656  0.6952447885662824  0.2796846870461334  1.0000
  O   O1        1.0  0.8517907935217005  0.3618942423531625  0.743959508175525  1.0000
