data_image0
_chemical_formula_structural       OTiO2TiO3CaSiO2
_chemical_formula_sum              "O8 Ti2 Ca1 Si1"
_cell_length_a       5.74809971037334
_cell_length_b       4.8704982452831915
_cell_length_c       4.8426008224487305
_cell_angle_alpha    90.00935303355784
_cell_angle_beta     89.9102060020483
_cell_angle_gamma    89.87552912763594

_space_group_name_H-M_alt    "P 1"
_space_group_IT_number       1

loop_
  _space_group_symop_operation_xyz
  'x, y, z'

loop_
  _atom_site_type_symbol
  _atom_site_label
  _atom_site_symmetry_multiplicity
  _atom_site_fract_x
  _atom_site_fract_y
  _atom_site_fract_z
  _atom_site_occupancy
  O   O1        1.0  0.7175648316171818  0.675631399144257  0.8967216981653127  1.0000
  Ti  Ti1       1.0  0.6885574534804371  0.42040309221279604  0.21330335381308754  1.0000
  O   O2        1.0  0.25127312751618536  0.785433690495975  0.9592619716180867  1.0000
  O   O3        1.0  0.2510841054047847  0.0532778363296014  0.4691060258965206  1.0000
  Ti  Ti2       1.0  0.5127282318630066  0.9180944171090581  0.7147656251502329  1.0000
  O   O4        1.0  0.4839781019754704  0.6014419455583229  0.45837495163886144  1.0000
  O   O5        1.0  0.48477674788346575  0.23670829695020668  0.9698606313694065  1.0000
  O   O6        1.0  0.7164258490881267  0.16419663281865884  0.5324496199214466  1.0000
  Ca  Ca1       1.0  0.10221325483446267  0.4200057053015811  0.7140937971299195  1.0000
  Si  Si1       1.0  0.10019429753348601  0.919555674420755  0.2145348852013024  1.0000
  O   O7        1.0  0.950576692914837  0.1747274131958729  0.0802519928293528  1.0000
  O   O8        1.0  0.9502029787575614  0.6652069519899453  0.34869373641889334  1.0000
