data_image0
_chemical_formula_structural       CaSiO2TiO2SiO4
_chemical_formula_sum              "Ca1 Si2 O8 Ti1"
_cell_length_a       5.64865216358816
_cell_length_b       5.6460344443242665
_cell_length_c       5.645788192749023
_cell_angle_alpha    106.52163569280685
_cell_angle_beta     106.49978503553935
_cell_angle_gamma    115.51008189592251

_space_group_name_H-M_alt    "P 1"
_space_group_IT_number       1

loop_
  _space_group_symop_operation_xyz
  'x, y, z'

loop_
  _atom_site_type_symbol
  _atom_site_label
  _atom_site_symmetry_multiplicity
  _atom_site_fract_x
  _atom_site_fract_y
  _atom_site_fract_z
  _atom_site_occupancy
  Ca  Ca1       1.0  0.05949169333483153  0.3681198256304818  0.0015229017166773495  1.0000
  Si  Si1       1.0  0.808287743159648  0.5950202171255236  0.4793010874180796  1.0000
  O   O1        1.0  0.5135394124542542  0.0003153512544680215  0.7582093051855648  1.0000
  O   O2        1.0  0.019477758037954596  0.6864539538918952  0.3348901557505039  1.0000
  Ti  Ti1       1.0  0.3768713872855155  0.10068624526786321  0.44324823338621594  1.0000
  O   O3        1.0  0.9093675925290711  0.9107414401344436  0.7215839125453732  1.0000
  O   O4        1.0  0.8118596700308878  0.376499353212761  0.6157190042261359  1.0000
  Si  Si2       1.0  0.5376989974774753  0.7995638295980501  0.916605283963829  1.0000
  O   O5        1.0  0.9020263464596361  0.9682423250483746  0.1160732836499215  1.0000
  O   O6        1.0  0.45184444473649055  0.38117786817958704  0.2728173960849674  1.0000
  O   O7        1.0  0.40767851060538685  0.855911082193166  0.1431805693773751  1.0000
  O   O8        1.0  0.37376114000617033  0.44011281857541024  0.7276051734692296  1.0000
