data_image0
_chemical_formula_structural       Ca2TiOSiO5
_chemical_formula_sum              "Ca2 Ti1 O6 Si1"
_cell_length_a       5.261030050181614
_cell_length_b       5.2657775355210354
_cell_length_c       5.297211170196533
_cell_angle_alpha    119.82584761277968
_cell_angle_beta     119.80710662582902
_cell_angle_gamma    89.98947768086435

_space_group_name_H-M_alt    "P 1"
_space_group_IT_number       1

loop_
  _space_group_symop_operation_xyz
  'x, y, z'

loop_
  _atom_site_type_symbol
  _atom_site_label
  _atom_site_symmetry_multiplicity
  _atom_site_fract_x
  _atom_site_fract_y
  _atom_site_fract_z
  _atom_site_occupancy
  Ca  Ca1       1.0  0.9063067040003429  0.829815313307315  0.27056571427681353  1.0000
  Ca  Ca2       1.0  0.4064470490445254  0.3294919428987381  0.2709713314727273  1.0000
  Ti  Ti1       1.0  0.6564342003000723  0.07971629552962317  0.770793951131542  1.0000
  O   O1        1.0  0.8789922624249521  0.7796237227288817  0.770786597754028  1.0000
  Si  Si1       1.0  0.15643660560973024  0.5797693619267553  0.7708605851733885  1.0000
  O   O2        1.0  0.956222069594252  0.3021463446843307  0.770344231228745  1.0000
  O   O3        1.0  0.35676018775591617  0.857275062908464  0.7713355723837904  1.0000
  O   O4        1.0  0.3957668751408895  0.81923598149521  0.2501859287025089  1.0000
  O   O5        1.0  0.9170314366782607  0.3402624131966133  0.29159462121245505  1.0000
  O   O6        1.0  0.43380839670073745  0.3797396897228339  0.7708736456344193  1.0000
