data_image0
_chemical_formula_structural       Ca2TiSiO2TiO3SiO3
_chemical_formula_sum              "Ca2 Ti2 Si2 O8"
_cell_length_a       6.257787211708249
_cell_length_b       5.938268000071193
_cell_length_c       6.073287487030029
_cell_angle_alpha    118.85220497367389
_cell_angle_beta     121.14497572537422
_cell_angle_gamma    90.06611738034249

_space_group_name_H-M_alt    "P 1"
_space_group_IT_number       1

loop_
  _space_group_symop_operation_xyz
  'x, y, z'

loop_
  _atom_site_type_symbol
  _atom_site_label
  _atom_site_symmetry_multiplicity
  _atom_site_fract_x
  _atom_site_fract_y
  _atom_site_fract_z
  _atom_site_occupancy
  Ca  Ca1       1.0  0.7070857319525258  0.849074316729493  0.8053646827002284  1.0000
  Ca  Ca2       1.0  0.2073374338065774  0.8492571984964891  0.8058029764446746  1.0000
  Ti  Ti1       1.0  0.7073417136426999  0.8490119600563972  0.3055340373317745  1.0000
  Si  Si1       1.0  0.3405146970695504  0.23301239356964662  0.5718995318899737  1.0000
  O   O1        1.0  0.4586396662233124  0.12889803135913222  0.8080153294488119  1.0000
  O   O2        1.0  0.4072328395602831  0.5755573454608717  0.2585970598713752  1.0000
  Ti  Ti2       1.0  0.7073172699440675  0.34927582130136914  0.3055300159203623  1.0000
  O   O3        1.0  0.45718470098296504  0.5704577052111265  0.8054825180194907  1.0000
  O   O4        1.0  0.9557606825901129  0.5694012573767393  0.8030336350435865  1.0000
  O   O5        1.0  0.9572810337073723  0.12781358583560418  0.8055925645212907  1.0000
  Si  Si2       1.0  0.07391660325750345  0.46520684155652764  0.039098954821261786  1.0000
  O   O6        1.0  0.4536360027191476  0.12315380884570142  0.35288177615108934  1.0000
  O   O7        1.0  0.9609883749291132  0.5751842780222118  0.258333921893325  1.0000
  O   O8        1.0  0.007206728669566809  0.12262725123106882  0.3522400677749552  1.0000
