data_image0
_chemical_formula_structural       Ti2SiOSiO
_chemical_formula_sum              "Ti2 Si2 O2"
_cell_length_a       3.305546523588533
_cell_length_b       3.3096024890316738
_cell_length_c       8.453608512878418
_cell_angle_alpha    78.62909021498623
_cell_angle_beta     78.69241887952322
_cell_angle_gamma    59.920166830288835

_space_group_name_H-M_alt    "P 1"
_space_group_IT_number       1

loop_
  _space_group_symop_operation_xyz
  'x, y, z'

loop_
  _atom_site_type_symbol
  _atom_site_label
  _atom_site_symmetry_multiplicity
  _atom_site_fract_x
  _atom_site_fract_y
  _atom_site_fract_z
  _atom_site_occupancy
  Ti  Ti1       1.0  0.2234047060353787  0.20236095256919426  0.5127523143370348  1.0000
  Ti  Ti2       1.0  8.57930270674679e-05  0.9789455590969466  0.18451361877733535  1.0000
  Si  Si1       1.0  0.47452496222864354  0.45323122493988705  0.7610032820317383  1.0000
  O   O1        1.0  0.31161068255962454  0.2912414693395771  0.24750363177593063  1.0000
  Si  Si2       1.0  0.7486157601034914  0.7279543835963302  0.9364897056042826  1.0000
  O   O2        1.0  0.9118481136389701  0.8900397358533054  0.4497902022474466  1.0000
