data_image0
_chemical_formula_structural       OCaTiOSiCaOTiO5SiO2
_chemical_formula_sum              "O10 Ca2 Ti2 Si2"
_cell_length_a       5.496760094483753
_cell_length_b       5.499529211308419
_cell_length_c       7.109665393829346
_cell_angle_alpha    104.40184421658586
_cell_angle_beta     104.36002374988315
_cell_angle_gamma    105.69559902216044

_space_group_name_H-M_alt    "P 1"
_space_group_IT_number       1

loop_
  _space_group_symop_operation_xyz
  'x, y, z'

loop_
  _atom_site_type_symbol
  _atom_site_label
  _atom_site_symmetry_multiplicity
  _atom_site_fract_x
  _atom_site_fract_y
  _atom_site_fract_z
  _atom_site_occupancy
  O   O1        1.0  0.08365329674517871  0.07621696831501999  0.6512432475486127  1.0000
  Ca  Ca1       1.0  0.09795152806743714  0.8599616178521801  0.2844886681381248  1.0000
  Ti  Ti1       1.0  0.769462548782501  0.18859113643710013  0.5344757283032076  1.0000
  O   O2        1.0  0.6572938773436835  0.5026963087861329  0.15134418107189251  1.0000
  Si  Si1       1.0  0.08859094097744984  0.8693866230015647  0.7844442666380019  1.0000
  Ca  Ca2       1.0  0.4409043490302364  0.5169748251187946  0.7847140334742334  1.0000
  O   O3        1.0  0.8385797120959766  0.11953259393652493  0.2845024547173936  1.0000
  Ti  Ti2       1.0  0.7694559100160916  0.18847531509346405  0.034474451971862365  1.0000
  O   O4        1.0  0.4553203853273998  0.30095839234285476  0.4178492594771984  1.0000
  O   O5        1.0  0.39197856138533765  0.9381850712298982  0.9434369126497467  1.0000
  O   O6        1.0  0.7004883727302513  0.2575827002490393  0.7845566374357672  1.0000
  O   O7        1.0  0.8815704280269429  0.8742875333857938  0.9176630295469574  1.0000
  O   O8        1.0  0.5189664053538975  0.8111818154433437  0.4433040264716945  1.0000
  Si  Si2       1.0  0.4503200295540376  0.5077171927503018  0.2845878607457584  1.0000
  O   O9        1.0  0.14693845719029566  0.43887791805357457  0.12558828726969312  1.0000
  O   O10       1.0  0.01997088133134949  0.5659786533733108  0.6256294772343148  1.0000
