data_image0
_chemical_formula_structural       CaO2Si2TiSiO4SiTiOCaO5
_chemical_formula_sum              "Ca2 O12 Si4 Ti2"
_cell_length_a       5.267430692133292
_cell_length_b       6.704485507062804
_cell_length_c       6.7071547508239755
_cell_angle_alpha    83.71743073356082
_cell_angle_beta     79.36755601533288
_cell_angle_gamma    79.33255146529072

_space_group_name_H-M_alt    "P 1"
_space_group_IT_number       1

loop_
  _space_group_symop_operation_xyz
  'x, y, z'

loop_
  _atom_site_type_symbol
  _atom_site_label
  _atom_site_symmetry_multiplicity
  _atom_site_fract_x
  _atom_site_fract_y
  _atom_site_fract_z
  _atom_site_occupancy
  Ca  Ca1       1.0  0.056429171930599924  0.055888964078471125  0.36518646276215067  1.0000
  O   O1        1.0  0.3192093924877257  0.13192571109157647  0.9959756731762736  1.0000
  O   O2        1.0  0.4783767118657572  0.8717035141821387  0.28311794783926875  1.0000
  Si  Si1       1.0  0.5378526489481893  0.3673420188827617  0.4673777915291316  1.0000
  Si  Si2       1.0  0.5747315364268392  0.9535607614113265  0.05370102475114696  1.0000
  Ti  Ti1       1.0  0.5565379244020074  0.833534949608305  0.5874541658357044  1.0000
  Si  Si3       1.0  0.07461999199987177  0.14375942862553812  0.8634680186554522  1.0000
  O   O3        1.0  0.8191854572327931  0.08621020594482347  0.04177770972115336  1.0000
  O   O4        1.0  0.9780494702603316  0.3732716764150607  0.7815484531570599  1.0000
  O   O5        1.0  0.7932987941382951  0.42494610976945757  0.28913949170022  1.0000
  O   O6        1.0  0.9590311419310626  0.7260794174842266  0.4431194936980381  1.0000
  Si  Si4       1.0  0.03783864211575676  0.5575060155501209  0.27712020963394923  1.0000
  Ti  Ti2       1.0  0.05600202342798653  0.6775331720489941  0.7433919070293764  1.0000
  O   O7        1.0  0.29340868783838486  0.37910163685878373  0.3347222740582335  1.0000
  Ca  Ca2       1.0  0.5561120671153204  0.4551854768817357  0.9657294844227607  1.0000
  O   O8        1.0  0.13413907051024443  0.6392970577352609  0.04767487445073276  1.0000
  O   O9        1.0  0.6536752888770051  0.7849630850577157  0.8877218464062653  1.0000
  O   O10       1.0  0.45865709909616514  0.533436712004074  0.6358741869629805  1.0000
  O   O11       1.0  0.6343905914062942  0.13781924036437412  0.5492735230301489  1.0000
  O   O12       1.0  0.15371599429216515  0.9776481616688016  0.6949862818382249  1.0000
