data_image0
_chemical_formula_structural       TiCaSiOTi
_chemical_formula_sum              "Ti2 Ca1 Si1 O1"
_cell_length_a       4.563940888175934
_cell_length_b       4.111631618832806
_cell_length_c       4.117557048797607
_cell_angle_alpha    89.98102823782757
_cell_angle_beta     90.03476133590105
_cell_angle_gamma    90.00839680686963

_space_group_name_H-M_alt    "P 1"
_space_group_IT_number       1

loop_
  _space_group_symop_operation_xyz
  'x, y, z'

loop_
  _atom_site_type_symbol
  _atom_site_label
  _atom_site_symmetry_multiplicity
  _atom_site_fract_x
  _atom_site_fract_y
  _atom_site_fract_z
  _atom_site_occupancy
  Ti  Ti1       1.0  0.6617883356662443  0.6438705836741497  0.6668254555949366  1.0000
  Ca  Ca1       1.0  0.16180938555903904  0.1438802111737364  0.6670194462833237  1.0000
  Si  Si1       1.0  0.16181150129894611  0.6437693424120762  0.16690779582796103  1.0000
  O   O1        1.0  0.6619150829778009  0.14386196295525464  0.6671822032549788  1.0000
  Ti  Ti2       1.0  0.6618050963422829  0.1437770712156107  0.16692242911461028  1.0000
