data_image0
_chemical_formula_structural       CaSi2OSiO2TiO5CaO2
_chemical_formula_sum              "Ca2 Si3 O10 Ti1"
_cell_length_a       5.343758890482703
_cell_length_b       5.481272094904991
_cell_length_c       6.927413940429688
_cell_angle_alpha    104.75645521789748
_cell_angle_beta     103.73367605463609
_cell_angle_gamma    105.44904322100254

_space_group_name_H-M_alt    "P 1"
_space_group_IT_number       1

loop_
  _space_group_symop_operation_xyz
  'x, y, z'

loop_
  _atom_site_type_symbol
  _atom_site_label
  _atom_site_symmetry_multiplicity
  _atom_site_fract_x
  _atom_site_fract_y
  _atom_site_fract_z
  _atom_site_occupancy
  Ca  Ca1       1.0  0.6832295891077943  0.03721553889481065  0.14168042652381618  1.0000
  Si  Si1       1.0  0.6700135225794226  0.011923323763600337  0.631700688709643  1.0000
  Si  Si2       1.0  0.002200547217354985  0.7063114031221659  0.3892268931607868  1.0000
  O   O1        1.0  0.06385233904708734  0.6506826862283305  0.6267400776933443  1.0000
  Si  Si3       1.0  0.3343635586358533  0.4006922806684999  0.14674295348005229  1.0000
  O   O2        1.0  0.25379807633512225  0.08953906883214796  0.9922642055199223  1.0000
  O   O3        1.0  0.35699446421474845  0.9450377801754533  0.47388351310614274  1.0000
  Ti  Ti1       1.0  0.0021821345153643455  0.7063106559893333  0.8892292940088764  1.0000
  O   O4        1.0  0.12115735589969738  0.4174177996677956  0.28560860226323975  1.0000
  O   O5        1.0  0.3240975773024696  0.5940707705966453  0.00027893047379534686  1.0000
  O   O6        1.0  0.9404971647681454  0.7619334807697131  0.15170906830018188  1.0000
  O   O7        1.0  0.8832047452668009  0.9952225641703105  0.49282732787220707  1.0000
  O   O8        1.0  0.7505396648388099  0.3230824668966724  0.7861545483102368  1.0000
  Ca  Ca2       1.0  0.32115015512184725  0.37542736487608486  0.6367934421560715  1.0000
  O   O9        1.0  0.6473599011241259  0.4675901762596688  0.3045848579179919  1.0000
  O   O10       1.0  0.6802959254876993  0.8185878775977122  0.7781830124943779  1.0000
