data_image0
_chemical_formula_structural       CaSiOTiOCaO4
_chemical_formula_sum              "Ca2 Si1 O6 Ti1"
_cell_length_a       5.266559325574049
_cell_length_b       5.268798859931175
_cell_length_c       5.310545921325684
_cell_angle_alpha    119.79328130231058
_cell_angle_beta     119.76631433362557
_cell_angle_gamma    90.0048665471333

_space_group_name_H-M_alt    "P 1"
_space_group_IT_number       1

loop_
  _space_group_symop_operation_xyz
  'x, y, z'

loop_
  _atom_site_type_symbol
  _atom_site_label
  _atom_site_symmetry_multiplicity
  _atom_site_fract_x
  _atom_site_fract_y
  _atom_site_fract_z
  _atom_site_occupancy
  Ca  Ca1       1.0  0.8942788554744285  0.9594425556451958  0.7884110566813187  1.0000
  Si  Si1       1.0  0.6443176389839135  0.20967474751770138  0.28840022299853313  1.0000
  O   O1        1.0  0.4442767621505071  0.9319327960906411  0.28780498897492374  1.0000
  Ti  Ti1       1.0  0.14425952298519093  0.7097230944890304  0.28829972594792647  1.0000
  O   O2        1.0  0.9216862139976602  0.009900454132548097  0.28801406534869073  1.0000
  Ca  Ca2       1.0  0.3942320924029972  0.45999734865679937  0.7881064819091038  1.0000
  O   O3        1.0  0.4046149269218788  0.9700097738986818  0.808726473173528  1.0000
  O   O4        1.0  0.8839386387376574  0.44932790801727995  0.7677067151519524  1.0000
  O   O5        1.0  0.8441839565221321  0.4872414571205802  0.288565331563269  1.0000
  O   O6        1.0  0.3667660779709759  0.40948858956370005  0.28823651690897045  1.0000
