data_image0
_chemical_formula_structural       TiCaSiO8Si
_chemical_formula_sum              "Ti1 Ca1 Si2 O8"
_cell_length_a       4.913925535141852
_cell_length_b       4.819833106610888
_cell_length_c       7.576330184936523
_cell_angle_alpha    112.40921745952726
_cell_angle_beta     101.08268844429256
_cell_angle_gamma    98.82182000892402

_space_group_name_H-M_alt    "P 1"
_space_group_IT_number       1

loop_
  _space_group_symop_operation_xyz
  'x, y, z'

loop_
  _atom_site_type_symbol
  _atom_site_label
  _atom_site_symmetry_multiplicity
  _atom_site_fract_x
  _atom_site_fract_y
  _atom_site_fract_z
  _atom_site_occupancy
  Ti  Ti1       1.0  0.12463223854802248  0.568234296545309  0.8897189649118439  1.0000
  Ca  Ca1       1.0  0.8021861951532255  0.9963371387419822  0.34741671216962117  1.0000
  Si  Si1       1.0  0.23977779937553828  0.5085112950047749  0.30017707499545054  1.0000
  O   O1        1.0  0.3518415064804787  0.8531348817657621  0.833744905426964  1.0000
  O   O2        1.0  0.92623819222625  0.5176447592972728  0.324348785623174  1.0000
  O   O3        1.0  0.28719178483459923  0.14866774242011693  0.2666049515175937  1.0000
  O   O4        1.0  0.4813378242873995  0.795383838045267  0.4999027462463732  1.0000
  O   O5        1.0  0.7436437239950557  0.3285434165089315  0.8129820849027739  1.0000
  O   O6        1.0  0.18522645545053706  0.21897663402486967  0.6701515002124648  1.0000
  O   O7        1.0  0.33852006784500055  0.5512546168171893  0.11304315572178027  1.0000
  O   O8        1.0  0.02897438297804933  0.9407830303419418  0.09362415937860287  1.0000
  Si  Si2       1.0  0.4436559456952841  0.053989691147488555  0.7137786390594122  1.0000
