data_image0
_chemical_formula_structural       OTiCa2SiOSiO5
_chemical_formula_sum              "O7 Ti1 Ca2 Si2"
_cell_length_a       5.422325928583156
_cell_length_b       5.431027061364581
_cell_length_c       6.724681854248048
_cell_angle_alpha    90.10537866101332
_cell_angle_beta     90.16414561279318
_cell_angle_gamma    119.79188847268021

_space_group_name_H-M_alt    "P 1"
_space_group_IT_number       1

loop_
  _space_group_symop_operation_xyz
  'x, y, z'

loop_
  _atom_site_type_symbol
  _atom_site_label
  _atom_site_symmetry_multiplicity
  _atom_site_fract_x
  _atom_site_fract_y
  _atom_site_fract_z
  _atom_site_occupancy
  O   O1        1.0  0.17006429602850445  0.07723649273892227  0.4014801485290768  1.0000
  Ti  Ti1       1.0  0.05312656918863956  0.3051520351334482  0.5549896256035639  1.0000
  Ca  Ca1       1.0  0.386294007174908  0.9728560587581268  0.8218665447549613  1.0000
  Ca  Ca2       1.0  0.7198582692331327  0.6379293249856217  0.38361291932956904  1.0000
  Si  Si1       1.0  0.38497562197515456  0.9699958062712795  0.28806560108713325  1.0000
  O   O2        1.0  0.7969974422041043  0.9530746926042817  0.7364037654709268  1.0000
  Si  Si2       1.0  0.7204933881259828  0.6392266864389435  0.83044609735485  1.0000
  O   O3        1.0  0.707391848724699  0.18540578249126488  0.40098869570418566  1.0000
  O   O4        1.0  0.721203561144093  0.6383509082718991  0.06581274035482346  1.0000
  O   O5        1.0  0.40614995244985136  0.4022604775508059  0.7353900767217576  1.0000
  O   O6        1.0  0.957711575049745  0.5621772117920659  0.734939411345511  1.0000
  O   O7        1.0  0.27815239631696514  0.6481533643103043  0.4002536377489706  1.0000
