data_image0
_chemical_formula_structural       OTiO2SiCaO2CaO
_chemical_formula_sum              "O6 Ti1 Si1 Ca2"
_cell_length_a       5.261131157062132
_cell_length_b       5.495449775832654
_cell_length_c       5.598201274871827
_cell_angle_alpha    79.7935692399899
_cell_angle_beta     88.04324895073952
_cell_angle_gamma    96.29800364746332

_space_group_name_H-M_alt    "P 1"
_space_group_IT_number       1

loop_
  _space_group_symop_operation_xyz
  'x, y, z'

loop_
  _atom_site_type_symbol
  _atom_site_label
  _atom_site_symmetry_multiplicity
  _atom_site_fract_x
  _atom_site_fract_y
  _atom_site_fract_z
  _atom_site_occupancy
  O   O1        1.0  0.2854457534572086  0.053660270186376355  0.13489676988675617  1.0000
  Ti  Ti1       1.0  0.8587819889164182  0.22977249749456305  0.5471756908041928  1.0000
  O   O2        1.0  0.56535753715196  0.37897284138854676  0.7074628634572512  1.0000
  O   O3        1.0  0.7535367260821668  0.051205081369087004  0.33192783537998444  1.0000
  Si  Si1       1.0  0.4006473875245947  0.11928910495830959  0.858394650888434  1.0000
  Ca  Ca1       1.0  0.9125492326093485  0.8248911572852204  0.08125508274862524  1.0000
  O   O4        1.0  0.6021297736145185  0.9197955412563611  0.8105901506296431  1.0000
  O   O5        1.0  0.1382111197640377  0.053321452639557204  0.7015884146666472  1.0000
  Ca  Ca2       1.0  0.3811342382908773  0.7777257799847815  0.4908623199238064  1.0000
  O   O6        1.0  0.01869596813683565  0.5269297360869174  0.39707927171930163  1.0000
