data_image0
_chemical_formula_structural       CaTiO3SiO2SiO
_chemical_formula_sum              "Ca1 Ti1 O6 Si2"
_cell_length_a       4.1668712867135795
_cell_length_b       4.212684057461886
_cell_length_c       8.18663215637207
_cell_angle_alpha    101.74952594086828
_cell_angle_beta     102.52226512673984
_cell_angle_gamma    81.04849381464389

_space_group_name_H-M_alt    "P 1"
_space_group_IT_number       1

loop_
  _space_group_symop_operation_xyz
  'x, y, z'

loop_
  _atom_site_type_symbol
  _atom_site_label
  _atom_site_symmetry_multiplicity
  _atom_site_fract_x
  _atom_site_fract_y
  _atom_site_fract_z
  _atom_site_occupancy
  Ca  Ca1       1.0  0.07596624530608954  0.7055403779836971  0.6923161398059939  1.0000
  Ti  Ti1       1.0  0.5108746314472167  0.16379819005483495  0.5427352807926857  1.0000
  O   O1        1.0  0.09006764077743763  0.15785010976532704  0.5676156655634763  1.0000
  O   O2        1.0  0.7858308269142836  0.5126306903333478  0.10993206371160416  1.0000
  O   O3        1.0  0.5002657677320959  0.003053257868670809  0.3127597011418451  1.0000
  Si  Si1       1.0  0.8176896673892086  0.1440253592866817  0.9968222309458509  1.0000
  O   O4        1.0  0.531974838972373  0.5957768442683252  0.5667913167164228  1.0000
  O   O5        1.0  0.1847638054841745  0.9072109420399452  0.9969436670029325  1.0000
  Si  Si2       1.0  0.558401409316821  0.870897352611386  0.12439598639365262  1.0000
  O   O6        1.0  0.6885577384378795  0.15776330151253687  0.7973916248382978  1.0000
