data_image0
_chemical_formula_structural       SiCaSiO
_chemical_formula_sum              "Si2 Ca1 O1"
_cell_length_a       3.7973219505644944
_cell_length_b       3.8000899789049565
_cell_length_c       5.66245985031128
_cell_angle_alpha    90.07204050575832
_cell_angle_beta     90.02605284618129
_cell_angle_gamma    120.03262882551518

_space_group_name_H-M_alt    "P 1"
_space_group_IT_number       1

loop_
  _space_group_symop_operation_xyz
  'x, y, z'

loop_
  _atom_site_type_symbol
  _atom_site_label
  _atom_site_symmetry_multiplicity
  _atom_site_fract_x
  _atom_site_fract_y
  _atom_site_fract_z
  _atom_site_occupancy
  Si  Si1       1.0  0.13808012560478589  0.3668953962595239  0.9601149970279281  1.0000
  Ca  Ca1       1.0  0.8047944398833407  0.7003074344044978  0.5593003618294421  1.0000
  Si  Si2       1.0  0.471400757720109  0.03379437059051183  0.1258901095952611  1.0000
  O   O1        1.0  0.47153682614709047  0.03355458465742751  0.4240149935836382  1.0000
