data_image0
_chemical_formula_structural       CaTiOSiO5
_chemical_formula_sum              "Ca1 Ti1 O6 Si1"
_cell_length_a       4.991974573480138
_cell_length_b       5.010806986370873
_cell_length_c       5.012954711914063
_cell_angle_alpha    120.09733474904594
_cell_angle_beta     90.03026707375658
_cell_angle_gamma    90.1595830429487

_space_group_name_H-M_alt    "P 1"
_space_group_IT_number       1

loop_
  _space_group_symop_operation_xyz
  'x, y, z'

loop_
  _atom_site_type_symbol
  _atom_site_label
  _atom_site_symmetry_multiplicity
  _atom_site_fract_x
  _atom_site_fract_y
  _atom_site_fract_z
  _atom_site_occupancy
  Ca  Ca1       1.0  0.24999554850126493  0.8607183448951883  0.7939305147309709  1.0000
  Ti  Ti1       1.0  0.7499994581326409  0.194330426889416  0.4606358438672968  1.0000
  O   O1        1.0  0.5456295635208068  0.8343211742090442  0.4042431599192346  1.0000
  Si  Si1       1.0  0.7499489942618986  0.5273736347020338  0.12726349711264212  1.0000
  O   O2        1.0  0.9544846354558567  0.8352513234162072  0.15757671804261006  1.0000
  O   O3        1.0  0.5458412464671153  0.49740689321565673  0.8196121216426405  1.0000
  O   O4        1.0  0.9540739430262852  0.25022179353914104  0.8201003332877042  1.0000
  O   O5        1.0  0.5455628136965407  0.2496604011134905  0.1567516888366206  1.0000
  O   O6        1.0  0.9543493947978855  0.49811560922510534  0.4047341760370288  1.0000
