data_image0
_chemical_formula_structural       OTiCaSiCaO5
_chemical_formula_sum              "O6 Ti1 Ca2 Si1"
_cell_length_a       5.284135793722712
_cell_length_b       5.285320503889833
_cell_length_c       5.283421993255615
_cell_angle_alpha    60.298066320657554
_cell_angle_beta     60.19137815703888
_cell_angle_gamma    60.166489157696944

_space_group_name_H-M_alt    "P 1"
_space_group_IT_number       1

loop_
  _space_group_symop_operation_xyz
  'x, y, z'

loop_
  _atom_site_type_symbol
  _atom_site_label
  _atom_site_symmetry_multiplicity
  _atom_site_fract_x
  _atom_site_fract_y
  _atom_site_fract_z
  _atom_site_occupancy
  O   O1        1.0  0.9761214256286621  0.06266158819198608  0.3495602607727051  1.0000
  Ti  Ti1       1.0  0.23871351778507233  0.8500690460205078  0.03969689831137657  1.0000
  Ca  Ca1       1.0  0.9878039360046387  0.598665177822113  0.7884289622306824  1.0000
  Si  Si1       1.0  0.7387682795524597  0.35059812664985657  0.5395603775978088  1.0000
  Ca  Ca2       1.0  0.49030789732933044  0.10196353495121002  0.28993815183639526  1.0000
  O   O2        1.0  0.5458049178123473  0.5858156681060792  0.2546367049217224  1.0000
  O   O3        1.0  0.023932941257953654  0.543036699295044  0.299133837223053  1.0000
  O   O4        1.0  0.5010169744491577  0.6382631659507751  0.7296407222747803  1.0000
  O   O5        1.0  0.9317156672477722  0.1147298812866211  0.8245927095413208  1.0000
  O   O6        1.0  0.4534919857978821  0.15787698328495026  0.7804585099220276  1.0000
