data_image0
_chemical_formula_structural       TiO2Si2CaO4
_chemical_formula_sum              "Ti1 O6 Si2 Ca1"
_cell_length_a       5.104052025034607
_cell_length_b       5.105606543442448
_cell_length_c       5.14385461807251
_cell_angle_alpha    60.254454313528825
_cell_angle_beta     60.17491485250873
_cell_angle_gamma    59.866568595548515

_space_group_name_H-M_alt    "P 1"
_space_group_IT_number       1

loop_
  _space_group_symop_operation_xyz
  'x, y, z'

loop_
  _atom_site_type_symbol
  _atom_site_label
  _atom_site_symmetry_multiplicity
  _atom_site_fract_x
  _atom_site_fract_y
  _atom_site_fract_z
  _atom_site_occupancy
  Ti  Ti1       1.0  0.6368004679679871  0.5463279485702515  0.619684398174286  1.0000
  O   O1        1.0  0.5589012503623962  0.011545833200216293  0.21085539460182195  1.0000
  O   O2        1.0  0.03985625505447388  0.08631168305873871  0.7031333446502686  1.0000
  Si  Si1       1.0  0.8638700842857361  0.7743625044822692  0.9373878836631777  1.0000
  Si  Si2       1.0  0.36050778627395635  0.2704976797103882  0.44930270314216614  1.0000
  Ca  Ca1       1.0  0.11421363800764084  0.02344120480120182  0.18818949162960052  1.0000
  O   O3        1.0  0.17571531236171722  0.5210208296775818  0.7026830315589905  1.0000
  O   O4        1.0  0.6593647599220276  0.4702121317386627  0.20984895527362823  1.0000
  O   O5        1.0  0.6113835573196412  0.952136754989624  0.7016991972923279  1.0000
  O   O6        1.0  0.10040038079023361  0.5691831707954407  0.21091006696224213  1.0000
