data_image0
_chemical_formula_structural       CaTiOSiO3CaO2
_chemical_formula_sum              "Ca2 Ti1 O6 Si1"
_cell_length_a       5.289143594527683
_cell_length_b       5.290189421641419
_cell_length_c       5.290133953094482
_cell_angle_alpha    59.99927940303802
_cell_angle_beta     59.99521354511143
_cell_angle_gamma    59.98876168963635

_space_group_name_H-M_alt    "P 1"
_space_group_IT_number       1

loop_
  _space_group_symop_operation_xyz
  'x, y, z'

loop_
  _atom_site_type_symbol
  _atom_site_label
  _atom_site_symmetry_multiplicity
  _atom_site_fract_x
  _atom_site_fract_y
  _atom_site_fract_z
  _atom_site_occupancy
  Ca  Ca1       1.0  0.8023126721382141  0.8636155724525452  0.9076900482177734  1.0000
  Ti  Ti1       1.0  0.052439361810684204  0.1138397753238678  0.1576920598745346  1.0000
  O   O1        1.0  0.7917253375053405  0.8527771234512329  0.4184253513813019  1.0000
  Si  Si1       1.0  0.5524439811706543  0.6136030554771423  0.6575742363929749  1.0000
  O   O2        1.0  0.31353920698165894  0.3747938871383667  0.8967200517654419  1.0000
  O   O3        1.0  0.791767954826355  0.37446409463882446  0.896801233291626  1.0000
  O   O4        1.0  0.3136045336723327  0.8526989817619324  0.8967061042785645  1.0000
  Ca  Ca2       1.0  0.3026150166988373  0.36349862813949585  0.40795108675956726  1.0000
  O   O5        1.0  0.31358203291893005  0.8526977300643922  0.41855552792549133  1.0000
  O   O6        1.0  0.7917368412017821  0.37469273805618286  0.4185680150985718  1.0000
