data_image0
_chemical_formula_structural       OCaTiOCaTiOSiO2SiO5
_chemical_formula_sum              "O10 Ca2 Ti2 Si2"
_cell_length_a       5.499269532277884
_cell_length_b       6.38293139250169
_cell_length_c       6.396823883056641
_cell_angle_alpha    106.26297507908255
_cell_angle_beta     102.35770744899885
_cell_angle_gamma    106.77955022070407

_space_group_name_H-M_alt    "P 1"
_space_group_IT_number       1

loop_
  _space_group_symop_operation_xyz
  'x, y, z'

loop_
  _atom_site_type_symbol
  _atom_site_label
  _atom_site_symmetry_multiplicity
  _atom_site_fract_x
  _atom_site_fract_y
  _atom_site_fract_z
  _atom_site_occupancy
  O   O1        1.0  0.8048409223556519  0.9229929447174072  0.77120178937912  1.0000
  Ca  Ca1       1.0  0.2763547599315644  0.9412661194801332  0.858533799648285  1.0000
  Ti  Ti1       1.0  0.23506395518779757  0.2523139417171479  0.5046626329421997  1.0000
  O   O2        1.0  0.8210960030555725  0.16048836708068848  0.4505231678485871  1.0000
  Ca  Ca2       1.0  0.47270268201828003  0.7722867131233215  0.37287124991416937  1.0000
  Ti  Ti2       1.0  0.8459587097167969  0.26564842462539673  0.8067569732666017  1.0000
  O   O3        1.0  0.7318123579025269  0.2676011025905609  0.07402689754962921  1.0000
  Si  Si1       1.0  0.795228123664856  0.370147854089737  0.349710762500763  1.0000
  O   O4        1.0  0.5379332900047302  0.43312305212020874  0.4093202650547028  1.0000
  O   O5        1.0  0.5453591346740724  0.7753694057464601  0.04087327420711524  1.0000
  Si  Si2       1.0  0.8163591027259827  0.8201900720596313  0.9820507168769838  1.0000
  O   O6        1.0  0.11433027684688568  0.5567430853843689  0.4756590127944947  1.0000
  O   O7        1.0  0.8928760290145874  0.5886709094047546  0.8809542059898378  1.0000
  O   O8        1.0  0.09833316504955292  0.001037001609802246  0.20106206834316256  1.0000
  O   O9        1.0  0.19320914149284363  0.30990713834762573  0.8122796416282655  1.0000
  O   O10       1.0  0.45093899965286255  0.10490956157445908  0.6200414299964905  1.0000
