data_image0
_chemical_formula_structural       OCa2Ti2SiCaSiTiOTiO2SiO
_chemical_formula_sum              "O5 Ca3 Ti4 Si3"
_cell_length_a       3.8777088393049146
_cell_length_b       3.874519898969522
_cell_length_c       15.248639106750488
_cell_angle_alpha    90.01119718455422
_cell_angle_beta     90.02616212845436
_cell_angle_gamma    90.02851854523557

_space_group_name_H-M_alt    "P 1"
_space_group_IT_number       1

loop_
  _space_group_symop_operation_xyz
  'x, y, z'

loop_
  _atom_site_type_symbol
  _atom_site_label
  _atom_site_symmetry_multiplicity
  _atom_site_fract_x
  _atom_site_fract_y
  _atom_site_fract_z
  _atom_site_occupancy
  O   O1        1.0  0.3180575668811798  0.8471067547798156  0.34363287687301636  1.0000
  Ca  Ca1       1.0  0.3180130422115326  0.3469789028167724  0.8310438990592957  1.0000
  Ca  Ca2       1.0  0.8180512189865112  0.8463819622993469  0.45926937460899353  1.0000
  Ti  Ti1       1.0  0.3178558647632599  0.846469759941101  0.03894442319869995  1.0000
  Ti  Ti2       1.0  0.3180657625198364  0.34678497910499567  0.3382836878299713  1.0000
  Si  Si1       1.0  0.31750503182411194  0.34662878513336176  0.5904394388198853  1.0000
  Ca  Ca3       1.0  0.8178914785385132  0.8466596007347106  0.2332974672317505  1.0000
  Si  Si2       1.0  0.31834709644317627  0.3476473987102508  0.15180185437202454  1.0000
  Ti  Ti3       1.0  0.8180925250053406  0.3465303480625152  0.03902954235672951  1.0000
  O   O2        1.0  0.8178801536560059  0.34633940458297724  0.743060827255249  1.0000
  Ti  Ti4       1.0  0.8179079294204712  0.8472101688385009  0.7060301303863525  1.0000
  O   O3        1.0  0.31726422905921936  0.8468399047851562  0.7416490912437439  1.0000
  O   O4        1.0  0.8177319169044495  0.34676671028137207  0.3436282277107239  1.0000
  Si  Si3       1.0  0.8175169825553894  0.8460264801979065  0.9359868168830872  1.0000
  O   O5        1.0  0.3184003233909607  0.3465894162654876  0.481929749250412  1.0000
