data_image0
_chemical_formula_structural       Si3OCaO3TiO2CaO3
_chemical_formula_sum              "Si3 O9 Ca2 Ti1"
_cell_length_a       5.273445325655958
_cell_length_b       5.498929362565591
_cell_length_c       8.317889213562012
_cell_angle_alpha    74.39118805297635
_cell_angle_beta     96.04896156170766
_cell_angle_gamma    73.43298784733472

_space_group_name_H-M_alt    "P 1"
_space_group_IT_number       1

loop_
  _space_group_symop_operation_xyz
  'x, y, z'

loop_
  _atom_site_type_symbol
  _atom_site_label
  _atom_site_symmetry_multiplicity
  _atom_site_fract_x
  _atom_site_fract_y
  _atom_site_fract_z
  _atom_site_occupancy
  Si  Si1       1.0  0.326884925365448  0.7053581476211548  0.9247437715530396  1.0000
  Si  Si2       1.0  0.7644773721694946  0.9837998151779176  0.016783196479082056  1.0000
  Si  Si3       1.0  0.32393506169319153  0.28790897130966187  0.2651229500770569  1.0000
  O   O1        1.0  0.8925613164901733  0.5794326663017273  0.553587019443512  1.0000
  Ca  Ca1       1.0  0.8816956281661987  0.44254767894744873  0.8237642645835876  1.0000
  O   O2        1.0  0.4774566888809204  0.9698692560195924  0.3030746579170227  1.0000
  O   O3        1.0  0.3917077779769897  0.6459790468215943  0.7499828338623047  1.0000
  O   O4        1.0  0.6117630600929259  0.7312914729118348  0.014435824006795843  1.0000
  Ti  Ti1       1.0  0.7618611454963684  0.6030104160308839  0.34147706627845764  1.0000
  O   O5        1.0  0.9450129866600037  0.820000946521759  0.21329256892204282  1.0000
  O   O6        1.0  0.4812817275524139  0.4449333548545838  0.36138811707496643  1.0000
  Ca  Ca2       1.0  0.20107856392860418  0.8059865832328796  0.46970653533935547  1.0000
  O   O7        1.0  0.03745545819401742  0.28899291157722473  0.3262154161930084  1.0000
  O   O8        1.0  0.26082941889762873  0.44646897912025457  0.05123172327876088  1.0000
  O   O9        1.0  0.037002794444560956  0.9538922309875489  0.8901906013488767  1.0000
