data_image0
_chemical_formula_structural       CaTiCaSiTiO2SiO7SiO2
_chemical_formula_sum              "Ca2 Ti2 Si3 O11"
_cell_length_a       5.414278773123849
_cell_length_b       6.60681321484444
_cell_length_c       7.795047283172607
_cell_angle_alpha    70.75398346163692
_cell_angle_beta     72.48760933489008
_cell_angle_gamma    73.39318371098832

_space_group_name_H-M_alt    "P 1"
_space_group_IT_number       1

loop_
  _space_group_symop_operation_xyz
  'x, y, z'

loop_
  _atom_site_type_symbol
  _atom_site_label
  _atom_site_symmetry_multiplicity
  _atom_site_fract_x
  _atom_site_fract_y
  _atom_site_fract_z
  _atom_site_occupancy
  Ca  Ca1       1.0  0.30181065201759333  0.44319534301757807  0.23253412544727325  1.0000
  Ti  Ti1       1.0  0.45231786370277405  0.7918641567230225  0.8039409518241882  1.0000
  Ca  Ca2       1.0  0.7443865537643432  0.887173593044281  0.023011690005660057  1.0000
  Si  Si1       1.0  0.8185812830924988  0.19493642449378967  0.5964382886886597  1.0000
  Ti  Ti2       1.0  0.07501923292875291  0.9840850234031677  0.23828788101673126  1.0000
  O   O1        1.0  0.16957350075244904  0.26706695556640625  0.024204760789871216  1.0000
  O   O2        1.0  0.9096525311470032  0.2656579911708832  0.7570172548294067  1.0000
  Si  Si2       1.0  0.5846111178398133  0.6597735881805419  0.4310130774974823  1.0000
  O   O3        1.0  0.4078241288661957  0.7230440378189087  0.6179089546203613  1.0000
  O   O4        1.0  0.7095893025398254  0.5765746831893921  0.9467700719833374  1.0000
  O   O5        1.0  0.6636229753494263  0.002158854156732559  0.7204537987709045  1.0000
  O   O6        1.0  0.8744469881057739  0.72187602519989  0.35138827562332153  1.0000
  O   O7        1.0  0.1830633282661438  0.8147429823875427  0.0037379015702754402  1.0000
  O   O8        1.0  0.71894770860672  0.1700054109096527  0.13584350049495697  1.0000
  O   O9        1.0  0.06383478641510008  0.14113663136959076  0.4278639256954193  1.0000
  Si  Si3       1.0  0.8900531530380249  0.32963353395462036  0.9542078375816345  1.0000
  O   O10       1.0  0.4133356511592865  0.762637972831726  0.2719915211200714  1.0000
  O   O11       1.0  0.6103613376617432  0.3961227238178253  0.4828588664531708  1.0000
