data_image0
_chemical_formula_structural       OCaSiO
_chemical_formula_sum              "O2 Ca1 Si1"
_cell_length_a       3.506177082775655
_cell_length_b       3.5108289075924555
_cell_length_c       6.033303737640381
_cell_angle_alpha    73.13045159241075
_cell_angle_beta     73.13364135037929
_cell_angle_gamma    60.32391036807569

_space_group_name_H-M_alt    "P 1"
_space_group_IT_number       1

loop_
  _space_group_symop_operation_xyz
  'x, y, z'

loop_
  _atom_site_type_symbol
  _atom_site_label
  _atom_site_symmetry_multiplicity
  _atom_site_fract_x
  _atom_site_fract_y
  _atom_site_fract_z
  _atom_site_occupancy
  O   O1        1.0  0.9071364998817444  0.03546814247965813  0.20794264972209928  1.0000
  Ca  Ca1       1.0  0.3118535280227661  0.43982750177383423  0.9962257742881774  1.0000
  Si  Si1       1.0  0.8117364048957824  0.9387701153755187  0.49672153592109675  1.0000
  O   O2        1.0  0.7150416970252991  0.8446922898292542  0.7848104238510131  1.0000
