data_image0
_chemical_formula_structural       Ca2TiSiO
_chemical_formula_sum              "Ca2 Ti1 Si1 O1"
_cell_length_a       4.683116499616657
_cell_length_b       4.6868917717633725
_cell_length_c       4.150927543640137
_cell_angle_alpha    89.98260601216477
_cell_angle_beta     89.99055635311908
_cell_angle_gamma    90.02499416732071

_space_group_name_H-M_alt    "P 1"
_space_group_IT_number       1

loop_
  _space_group_symop_operation_xyz
  'x, y, z'

loop_
  _atom_site_type_symbol
  _atom_site_label
  _atom_site_symmetry_multiplicity
  _atom_site_fract_x
  _atom_site_fract_y
  _atom_site_fract_z
  _atom_site_occupancy
  Ca  Ca1       1.0  0.32306239008903503  0.5232632756233215  0.3392256498336792  1.0000
  Ca  Ca2       1.0  0.8229959607124329  0.022214561700820923  0.339609831571579  1.0000
  Ti  Ti1       1.0  0.322470098733902  0.023516053333878517  0.8388368487358093  1.0000
  Si  Si1       1.0  0.8220328092575073  0.5229616165161133  0.8393372297286987  1.0000
  O   O1        1.0  0.322255402803421  0.022641627117991447  0.33992132544517517  1.0000
