data_image0
_chemical_formula_structural       SiCaTiSiOTiSiO2TiO2CaO7
_chemical_formula_sum              "Si3 Ca2 Ti3 O12"
_cell_length_a       5.591756219421014
_cell_length_b       5.96831027870489
_cell_length_c       8.055936813354492
_cell_angle_alpha    91.58746818178328
_cell_angle_beta     86.37204512925307
_cell_angle_gamma    87.40444188442267

_space_group_name_H-M_alt    "P 1"
_space_group_IT_number       1

loop_
  _space_group_symop_operation_xyz
  'x, y, z'

loop_
  _atom_site_type_symbol
  _atom_site_label
  _atom_site_symmetry_multiplicity
  _atom_site_fract_x
  _atom_site_fract_y
  _atom_site_fract_z
  _atom_site_occupancy
  Si  Si1       1.0  0.924598217010498  0.7297447323799134  0.8264463543891907  1.0000
  Ca  Ca1       1.0  0.7888945937156677  0.2622534632682801  0.08617141842842102  1.0000
  Ti  Ti1       1.0  0.24109825491905212  0.11688375473022462  0.34639376401901245  1.0000
  Si  Si2       1.0  0.4090430438518524  0.968025028705597  0.9426426887512207  1.0000
  O   O1        1.0  0.1266372948884964  0.896158516407013  0.9070218801498413  1.0000
  Ti  Ti2       1.0  0.2580449879169464  0.3651108145713806  0.7243473529815674  1.0000
  Si  Si3       1.0  0.49807649850845337  0.6057700514793396  0.41032570600509644  1.0000
  O   O2        1.0  0.10630714893341064  0.231923520565033  0.5622929930686951  1.0000
  O   O3        1.0  0.4909643828868866  0.16755104064941406  0.8191686868667603  1.0000
  Ti  Ti3       1.0  0.003912051673978561  0.7183735370635987  0.37458541989326477  1.0000
  O   O4        1.0  0.7483354210853577  0.542647123336792  0.2979027330875397  1.0000
  O   O5        1.0  0.4164876341819763  0.08769567310810089  0.12675100564956665  1.0000
  Ca  Ca2       1.0  0.7313892841339111  0.12146452814340591  0.5645661354064941  1.0000
  O   O6        1.0  0.5134259462356567  0.4826304912567139  0.5903425216674805  1.0000
  O   O7        1.0  0.9383792281150818  0.017183473333716393  0.2924092113971711  1.0000
  O   O8        1.0  0.44236013293266296  0.8806604743003846  0.44193020462989807  1.0000
  O   O9        1.0  0.6467461585998535  0.7828153371810913  0.910209059715271  1.0000
  O   O10       1.0  0.9377987384796143  0.762506127357483  0.6197724342346191  1.0000
  O   O11       1.0  0.27120456099510193  0.5024691820144653  0.31420788168907166  1.0000
  O   O12       1.0  0.9991351962089539  0.47494170069694525  0.8785123825073242  1.0000
