data_image0
_chemical_formula_structural       Ti2CaTiSi2OTiOCa
_chemical_formula_sum              "Ti4 Ca2 Si2 O2"
_cell_length_a       3.8327777900870186
_cell_length_b       5.94824473085753
_cell_length_c       7.818420886993408
_cell_angle_alpha    89.98674510787642
_cell_angle_beta     90.00939401506042
_cell_angle_gamma    108.83479397647797

_space_group_name_H-M_alt    "P 1"
_space_group_IT_number       1

loop_
  _space_group_symop_operation_xyz
  'x, y, z'

loop_
  _atom_site_type_symbol
  _atom_site_label
  _atom_site_symmetry_multiplicity
  _atom_site_fract_x
  _atom_site_fract_y
  _atom_site_fract_z
  _atom_site_occupancy
  Ti  Ti1       1.0  0.8367095589637756  0.9777606129646301  0.6336302757263184  1.0000
  Ti  Ti2       1.0  0.1685895025730133  0.6403256058692932  0.13350534439086914  1.0000
  Ca  Ca1       1.0  0.45976927876472473  0.2236752063035965  0.9350467324256896  1.0000
  Ti  Ti3       1.0  0.8366723656654358  0.9782755970954895  0.23741780221462247  1.0000
  Si  Si1       1.0  0.2695132493972779  0.8431887030601503  0.43514531850814814  1.0000
  Si  Si2       1.0  0.7353937029838562  0.7750658392906189  0.9355711340904235  1.0000
  O   O1        1.0  0.00255797291174531  0.30885815620422363  0.1856233179569244  1.0000
  Ti  Ti4       1.0  0.16848531365394592  0.6404992938041687  0.7369079589843749  1.0000
  O   O2        1.0  0.0021165071520954457  0.3089047372341156  0.6845625042915343  1.0000
  Ca  Ca2       1.0  0.5456126928329468  0.39455246925354004  0.4353556334972381  1.0000
