data_image0
_chemical_formula_structural       CaSiTiO
_chemical_formula_sum              "Ca1 Si1 Ti1 O1"
_cell_length_a       3.9844121349311235
_cell_length_b       4.4062238489645145
_cell_length_c       4.413355827331543
_cell_angle_alpha    120.13368624373607
_cell_angle_beta     89.97374042812798
_cell_angle_gamma    90.04543692391849

_space_group_name_H-M_alt    "P 1"
_space_group_IT_number       1

loop_
  _space_group_symop_operation_xyz
  'x, y, z'

loop_
  _atom_site_type_symbol
  _atom_site_label
  _atom_site_symmetry_multiplicity
  _atom_site_fract_x
  _atom_site_fract_y
  _atom_site_fract_z
  _atom_site_occupancy
  Ca  Ca1       1.0  0.9519714713096619  0.8195075392723083  0.15717807412147528  1.0000
  Si  Si1       1.0  0.45258864760398865  0.48618552088737493  0.4899978041648865  1.0000
  Ti  Ti1       1.0  0.45134538412094116  0.15296679735183719  0.8236004114151001  1.0000
  O   O1        1.0  0.9517938494682312  0.15256886184215546  0.8236356377601624  1.0000
