data_image0
_chemical_formula_structural       O2TiOSiTiO2SiCaO4
_chemical_formula_sum              "O9 Ti2 Si2 Ca1"
_cell_length_a       5.6370836511897515
_cell_length_b       6.49744580224898
_cell_length_c       6.3549394607543945
_cell_angle_alpha    106.12637814166746
_cell_angle_beta     116.21390571551889
_cell_angle_gamma    90.01265949540291

_space_group_name_H-M_alt    "P 1"
_space_group_IT_number       1

loop_
  _space_group_symop_operation_xyz
  'x, y, z'

loop_
  _atom_site_type_symbol
  _atom_site_label
  _atom_site_symmetry_multiplicity
  _atom_site_fract_x
  _atom_site_fract_y
  _atom_site_fract_z
  _atom_site_occupancy
  O   O1        1.0  0.435979425907135  0.8057236671447755  0.03949121758341789  1.0000
  O   O2        1.0  0.6403267979621887  0.806356191635132  0.722931981086731  1.0000
  Ti  Ti1       1.0  0.5671223402023315  0.8237441778182983  0.3947240114212036  1.0000
  O   O3        1.0  0.8768209218978882  0.01253008469939232  0.5422226190567017  1.0000
  Si  Si1       1.0  0.6428871750831604  0.35968255996704107  0.09034819900989532  1.0000
  Ti  Ti2       1.0  0.13188603520393372  0.19529259204864505  0.524467945098877  1.0000
  O   O4        1.0  0.8756579160690308  0.2119603157043457  0.19914312660694122  1.0000
  O   O5        1.0  0.7417499423027039  0.5100806951522828  0.9607476592063904  1.0000
  Si  Si2       1.0  0.5144618153572083  0.6566087007522583  0.8282145857810974  1.0000
  Ca  Ca1       1.0  0.07903455942869186  0.00752926990389824  0.9584591388702393  1.0000
  O   O6        1.0  0.35380983352661133  0.21166646480560306  0.8784121870994568  1.0000
  O   O7        1.0  0.2939940392971039  0.005041003227233888  0.3775719106197357  1.0000
  O   O8        1.0  0.2464071810245514  0.4912317097187043  0.6115092635154724  1.0000
  O   O9        1.0  0.5920880436897278  0.5268681049346924  0.30811676383018494  1.0000
