data_image0
_chemical_formula_structural       TiCa2O4SiO2
_chemical_formula_sum              "Ti1 Ca2 O6 Si1"
_cell_length_a       5.289689001127807
_cell_length_b       5.29463502185324
_cell_length_c       5.293155670166016
_cell_angle_alpha    60.02075203349533
_cell_angle_beta     59.99627208540579
_cell_angle_gamma    59.97835321604484

_space_group_name_H-M_alt    "P 1"
_space_group_IT_number       1

loop_
  _space_group_symop_operation_xyz
  'x, y, z'

loop_
  _atom_site_type_symbol
  _atom_site_label
  _atom_site_symmetry_multiplicity
  _atom_site_fract_x
  _atom_site_fract_y
  _atom_site_fract_z
  _atom_site_occupancy
  Ti  Ti1       1.0  0.6907317638397217  0.007152410224080085  0.9036655426025391  1.0000
  Ca  Ca1       1.0  0.94029700756073  0.25769680738449097  0.1539447009563446  1.0000
  Ca  Ca2       1.0  0.44095557928085327  0.7571446895599365  0.6535879969596863  1.0000
  O   O1        1.0  0.4295647442340851  0.26833412051200867  0.16469484567642212  1.0000
  O   O2        1.0  0.9519338011741638  0.7463391423225403  0.6424628496170044  1.0000
  O   O3        1.0  0.42958870530128473  0.26842808723449707  0.642586350440979  1.0000
  O   O4        1.0  0.42988520860672  0.7460569143295287  0.16451722383499146  1.0000
  Si  Si1       1.0  0.1907298266887665  0.5073835849761963  0.4035998284816742  1.0000
  O   O5        1.0  0.9515769481658936  0.2684667110443115  0.6427919864654541  1.0000
  O   O6        1.0  0.9516863822937012  0.7462336421012878  0.1645747423171997  1.0000
