data_image0
_chemical_formula_structural       OCaSi2CaOTiO5
_chemical_formula_sum              "O7 Ca2 Si2 Ti1"
_cell_length_a       5.480813087742896
_cell_length_b       5.477962520098877
_cell_length_c       7.532695770263672
_cell_angle_alpha    69.0405354369453
_cell_angle_beta     69.05548588602309
_cell_angle_gamma    60.38048604160007

_space_group_name_H-M_alt    "P 1"
_space_group_IT_number       1

loop_
  _space_group_symop_operation_xyz
  'x, y, z'

loop_
  _atom_site_type_symbol
  _atom_site_label
  _atom_site_symmetry_multiplicity
  _atom_site_fract_x
  _atom_site_fract_y
  _atom_site_fract_z
  _atom_site_occupancy
  O   O1        1.0  0.4424804747104645  0.19548027217388156  0.5992928743362427  1.0000
  Ca  Ca1       1.0  0.03429346904158593  0.32055845856666565  0.9174761176109314  1.0000
  Si  Si1       1.0  0.17090481519699097  0.4526944160461426  0.5086900591850281  1.0000
  Si  Si2       1.0  0.3297837972640991  0.6145482063293457  0.03340053930878639  1.0000
  Ca  Ca2       1.0  0.46609842777252203  0.7464997172355652  0.6261197328567505  1.0000
  O   O2        1.0  0.9125100970268251  0.3487006723880768  0.5986744165420532  1.0000
  Ti  Ti1       1.0  0.7497738599777222  0.03365194424986839  0.7719358801841736  1.0000
  O   O3        1.0  0.057119831442832926  0.8710613250732422  0.9439619183540344  1.0000
  O   O4        1.0  0.5883484482765198  0.7189173102378846  0.9450889229774475  1.0000
  O   O5        1.0  0.06519411504268649  0.7259315252304077  0.6001183986663818  1.0000
  O   O6        1.0  0.2500577867031098  0.5327150225639343  0.2709589898586273  1.0000
  O   O7        1.0  0.4341798722743988  0.34302783012390137  0.9416307210922241  1.0000
