data_image0
_chemical_formula_structural       CaTi2CaSiO6SiO4
_chemical_formula_sum              "Ca2 Ti2 Si2 O10"
_cell_length_a       5.501126397333163
_cell_length_b       5.5053689976313205
_cell_length_c       7.126944065093994
_cell_angle_alpha    104.12904099388554
_cell_angle_beta     104.13302366704484
_cell_angle_gamma    105.73961110978534

_space_group_name_H-M_alt    "P 1"
_space_group_IT_number       1

loop_
  _space_group_symop_operation_xyz
  'x, y, z'

loop_
  _atom_site_type_symbol
  _atom_site_label
  _atom_site_symmetry_multiplicity
  _atom_site_fract_x
  _atom_site_fract_y
  _atom_site_fract_z
  _atom_site_occupancy
  Ca  Ca1       1.0  0.04668439552187916  0.9911759495735167  0.4365572929382325  1.0000
  Ti  Ti1       1.0  0.7173191905021667  0.3204612731933594  0.6866527199745179  1.0000
  Ti  Ti2       1.0  0.7171486616134644  0.32063180208206177  0.18664625287055972  1.0000
  Ca  Ca2       1.0  0.38808465003967285  0.6499119997024536  0.936663329601288  1.0000
  Si  Si1       1.0  0.03675660118460655  0.0011824709363281727  0.9363152980804444  1.0000
  O   O1        1.0  0.3385562002658844  0.07044550031423569  0.09517505764961244  1.0000
  O   O2        1.0  0.4038068652153015  0.43279838562011713  0.5693345665931702  1.0000
  O   O3        1.0  0.4669998586177826  0.9415507316589355  0.5948549509048462  1.0000
  O   O4        1.0  0.030731312930583954  0.20837152004241943  0.8038408756256105  1.0000
  O   O5        1.0  0.7862961292266846  0.25070711970329285  0.43629994988441473  1.0000
  O   O6        1.0  0.60519939661026  0.6335237622261047  0.3038120269775391  1.0000
  Si  Si2       1.0  0.3979271352291107  0.6393923163414001  0.43651831150054937  1.0000
  O   O7        1.0  0.09560554474592209  0.5700023174285889  0.2776356041431427  1.0000
  O   O8        1.0  0.9666675329208374  0.6988491415977478  0.7777597904205323  1.0000
  O   O9        1.0  0.8293865919113159  0.007323062978684902  0.06929808109998703  1.0000
  O   O10       1.0  0.6471776962280273  0.38962429761886597  0.9363386034965516  1.0000
