data_image0
_chemical_formula_structural       TiSi2CaO2SiO5
_chemical_formula_sum              "Ti1 Si3 Ca1 O7"
_cell_length_a       5.117086936912086
_cell_length_b       5.113763262396082
_cell_length_c       8.041275978088379
_cell_angle_alpha    71.47549664785318
_cell_angle_beta     71.42385527964201
_cell_angle_gamma    59.91865486202908

_space_group_name_H-M_alt    "P 1"
_space_group_IT_number       1

loop_
  _space_group_symop_operation_xyz
  'x, y, z'

loop_
  _atom_site_type_symbol
  _atom_site_label
  _atom_site_symmetry_multiplicity
  _atom_site_fract_x
  _atom_site_fract_y
  _atom_site_fract_z
  _atom_site_occupancy
  Ti  Ti1       1.0  0.3781982958316803  0.5837153792381287  0.9712353944778442  1.0000
  Si  Si1       1.0  0.177080437541008  0.38778647780418396  0.5676937103271484  1.0000
  Si  Si2       1.0  0.8347280025482178  0.045064471662044525  0.5970840454101562  1.0000
  Ca  Ca1       1.0  0.6038557291030883  0.812580943107605  0.29158928990364075  1.0000
  O   O1        1.0  0.5391110777854919  0.3532353341579437  0.49220821261405945  1.0000
  O   O2        1.0  0.2929455935955047  0.2476579397916794  0.08304554224014282  1.0000
  Si  Si3       1.0  0.02989748120307923  0.23974044620990753  0.008225152269005775  1.0000
  O   O3        1.0  0.9266468286514282  0.7496293783187866  0.4915856719017029  1.0000
  O   O4        1.0  0.03865837678313254  0.894467294216156  0.08254975825548172  1.0000
  O   O5        1.0  0.1417718082666397  0.13808231055736542  0.4922868311405182  1.0000
  O   O6        1.0  0.6847442984580994  0.5029736161231996  0.08250404894351956  1.0000
  O   O7        1.0  0.10433781892061232  0.3143288195133209  0.7860508561134338  1.0000
