data_image0
_chemical_formula_structural       Ca2SiOSiTiO7CaO
_chemical_formula_sum              "Ca3 Si2 O9 Ti1"
_cell_length_a       5.2240228498609484
_cell_length_b       5.223971383776093
_cell_length_c       6.424468040466309
_cell_angle_alpha    89.99539212682714
_cell_angle_beta     90.04217209189277
_cell_angle_gamma    120.0175327441173

_space_group_name_H-M_alt    "P 1"
_space_group_IT_number       1

loop_
  _space_group_symop_operation_xyz
  'x, y, z'

loop_
  _atom_site_type_symbol
  _atom_site_label
  _atom_site_symmetry_multiplicity
  _atom_site_fract_x
  _atom_site_fract_y
  _atom_site_fract_z
  _atom_site_occupancy
  Ca  Ca1       1.0  0.30769452452659607  0.05295027047395706  0.7644386887550354  1.0000
  Ca  Ca2       1.0  0.6411626935005188  0.7193703055381775  0.08851350843906403  1.0000
  Si  Si1       1.0  0.9742701649665833  0.38666048645973206  0.9257169961929321  1.0000
  O   O1        1.0  0.4816272556781769  0.40116435289382935  0.4413224160671234  1.0000
  Si  Si2       1.0  0.6410914659500122  0.719478189945221  0.6019825339317322  1.0000
  Ti  Ti1       1.0  0.30795595049858093  0.0532783642411232  0.26387879252433777  1.0000
  O   O2        1.0  0.481741338968277  0.8788323998451233  0.4412740170955658  1.0000
  O   O3        1.0  0.9593250751495361  0.8787758946418762  0.441243439912796  1.0000
  O   O4        1.0  0.1334770321846008  0.22693428397178647  0.08675390481948853  1.0000
  O   O5        1.0  0.1334779113531113  0.7048875093460083  0.0868324413895607  1.0000
  O   O6        1.0  0.8075658082962036  0.05293898284435272  0.7638466954231262  1.0000
  O   O7        1.0  0.30742162466049194  0.5528620481491089  0.7638691663742065  1.0000
  O   O8        1.0  0.8074650168418884  0.5529349446296692  0.7638636231422424  1.0000
  Ca  Ca3       1.0  0.9743399024009705  0.38661491870880127  0.4388558268547058  1.0000
  O   O9        1.0  0.6558693051338196  0.2270621657371521  0.08674397319555283  1.0000
