data_image0
_chemical_formula_structural       SiCaTiOCaOSiTi
_chemical_formula_sum              "Si2 Ca2 Ti2 O2"
_cell_length_a       4.210997585367591
_cell_length_b       4.217900732295511
_cell_length_c       8.835489273071289
_cell_angle_alpha    90.06065458103178
_cell_angle_beta     90.00246137252194
_cell_angle_gamma    89.97387020362754

_space_group_name_H-M_alt    "P 1"
_space_group_IT_number       1

loop_
  _space_group_symop_operation_xyz
  'x, y, z'

loop_
  _atom_site_type_symbol
  _atom_site_label
  _atom_site_symmetry_multiplicity
  _atom_site_fract_x
  _atom_site_fract_y
  _atom_site_fract_z
  _atom_site_occupancy
  Si  Si1       1.0  0.21534952521324158  0.5721637010574341  0.6048458218574524  1.0000
  Ca  Ca1       1.0  0.7149618864059448  0.07211680710315704  0.8428533673286438  1.0000
  Ti  Ti1       1.0  0.2146165817975998  0.07285137474536896  0.4501512348651886  1.0000
  O   O1        1.0  0.21593168377876282  0.07308086007833481  0.9511967301368713  1.0000
  Ca  Ca2       1.0  0.21542541682720184  0.5725415945053101  0.061337608844041824  1.0000
  O   O2        1.0  0.7159934639930725  0.5726576447486877  0.9509345889091492  1.0000
  Si  Si2       1.0  0.7154234647750854  0.07254503667354584  0.2972685694694519  1.0000
  Ti  Ti2       1.0  0.7147753834724426  0.5726462006568909  0.4496351182460785  1.0000
