data_image0
_chemical_formula_structural       CaTiSi
_chemical_formula_sum              "Ca1 Ti1 Si1"
_cell_length_a       4.275246626339686
_cell_length_b       4.273495296076347
_cell_length_c       4.436291694641113
_cell_angle_alpha    89.98768084337507
_cell_angle_beta     90.00307608955718
_cell_angle_gamma    119.95603079135614

_space_group_name_H-M_alt    "P 1"
_space_group_IT_number       1

loop_
  _space_group_symop_operation_xyz
  'x, y, z'

loop_
  _atom_site_type_symbol
  _atom_site_label
  _atom_site_symmetry_multiplicity
  _atom_site_fract_x
  _atom_site_fract_y
  _atom_site_fract_z
  _atom_site_occupancy
  Ca  Ca1       1.0  0.2211928516626358  0.3952041566371918  0.47831183671951294  1.0000
  Ti  Ti1       1.0  0.8871127367019653  0.728862464427948  0.9782700538635254  1.0000
  Si  Si1       1.0  0.5535814762115479  0.06260677427053452  0.9784838557243347  1.0000
