data_image0
_chemical_formula_structural       OSiOTi2O4
_chemical_formula_sum              "O6 Si1 Ti2"
_cell_length_a       4.3315344724828515
_cell_length_b       4.813902441373758
_cell_length_c       4.812686443328857
_cell_angle_alpha    120.1160917183441
_cell_angle_beta     90.04795726083077
_cell_angle_gamma    89.97863767197941

_space_group_name_H-M_alt    "P 1"
_space_group_IT_number       1

loop_
  _space_group_symop_operation_xyz
  'x, y, z'

loop_
  _atom_site_type_symbol
  _atom_site_label
  _atom_site_symmetry_multiplicity
  _atom_site_fract_x
  _atom_site_fract_y
  _atom_site_fract_z
  _atom_site_occupancy
  O   O1        1.0  0.13601313531398773  0.11115168780088425  0.26375266909599304  1.0000
  Si  Si1       1.0  0.9030168056488037  0.8023296594619751  0.9504165649414062  1.0000
  O   O2        1.0  0.6706758737564087  0.8064879775047302  0.26345935463905334  1.0000
  Ti  Ti1       1.0  0.9028034210205078  0.46865642070770264  0.2836112678050995  1.0000
  Ti  Ti2       1.0  0.4031420052051544  0.13517600297927856  0.6165289282798767  1.0000
  O   O3        1.0  0.6706838607788086  0.4884616136550903  0.6409555077552795  1.0000
  O   O4        1.0  0.6705694794654846  0.11055125296115875  0.9455159902572632  1.0000
  O   O5        1.0  0.13601088523864746  0.8067361116409301  0.6417355537414551  1.0000
  O   O6        1.0  0.13606169819831848  0.4887017011642456  0.9453088641166687  1.0000
