data_image0
_chemical_formula_structural       CaTiSiO3SiO5TiOSiO
_chemical_formula_sum              "Ca1 Ti2 Si3 O10"
_cell_length_a       5.4623113179146525
_cell_length_b       5.544552415087503
_cell_length_c       7.1291656494140625
_cell_angle_alpha    104.92487270368353
_cell_angle_beta     102.5986347162022
_cell_angle_gamma    106.8233391878054

_space_group_name_H-M_alt    "P 1"
_space_group_IT_number       1

loop_
  _space_group_symop_operation_xyz
  'x, y, z'

loop_
  _atom_site_type_symbol
  _atom_site_label
  _atom_site_symmetry_multiplicity
  _atom_site_fract_x
  _atom_site_fract_y
  _atom_site_fract_z
  _atom_site_occupancy
  Ca  Ca1       1.0  0.03531723469495772  0.7059158682823181  0.5288734436035156  1.0000
  Ti  Ti1       1.0  0.6832817196846008  0.042288847267627716  0.3414163589477539  1.0000
  Si  Si1       1.0  0.35333865880966187  0.26364442706108093  0.017937432974576936  1.0000
  O   O1        1.0  0.7731689810752869  0.9690693020820617  0.5851373076438904  1.0000
  O   O2        1.0  0.7967928051948547  0.7537708878517151  0.20601662993431086  1.0000
  O   O3        1.0  0.04299445077776903  0.9586814045906066  0.9579720497131347  1.0000
  Si  Si2       1.0  0.019220570102334016  0.7375691533088684  0.08517478406429288  1.0000
  O   O4        1.0  0.6200546622276306  0.36844086647033686  0.48963296413421636  1.0000
  O   O5        1.0  0.3810598850250244  0.18137907981872559  0.7498176097869873  1.0000
  O   O6        1.0  0.9313673973083496  0.43503427505493164  0.9270275831222535  1.0000
  O   O7        1.0  0.08611598610877991  0.28899726271629333  0.43352144956588745  1.0000
  O   O8        1.0  0.5975222587585449  0.13694311678409576  0.08618796616792679  1.0000
  Ti  Ti2       1.0  0.7250856757164001  0.056105829775333405  0.8363423347473145  1.0000
  O   O9        1.0  0.44733235239982605  0.6881887316703796  0.7437236905097961  1.0000
  Si  Si3       1.0  0.38762497901916504  0.3792702555656433  0.600214421749115  1.0000
  O   O10       1.0  0.30076485872268677  0.829407811164856  0.26599475741386414  1.0000
