data_image0
_chemical_formula_structural       SiCaSiO
_chemical_formula_sum              "Si2 Ca1 O1"
_cell_length_a       3.7973219505644944
_cell_length_b       3.800089978904957
_cell_length_c       5.662459850311279
_cell_angle_alpha    90.07204050575834
_cell_angle_beta     90.02605284618129
_cell_angle_gamma    120.03262882551518

_space_group_name_H-M_alt    "P 1"
_space_group_IT_number       1

loop_
  _space_group_symop_operation_xyz
  'x, y, z'

loop_
  _atom_site_type_symbol
  _atom_site_label
  _atom_site_symmetry_multiplicity
  _atom_site_fract_x
  _atom_site_fract_y
  _atom_site_fract_z
  _atom_site_occupancy
  Si  Si1       1.0  0.1378854364156723  0.36751511693000793  0.9665167927742004  1.0000
  Ca  Ca1       1.0  0.8047043085098267  0.699916660785675  0.5669524669647217  1.0000
  Si  Si2       1.0  0.47137460112571716  0.03374233469367027  0.1199384555220604  1.0000
  O   O1        1.0  0.471847802400589  0.03337767347693443  0.4159127473831177  1.0000
