data_image0
_chemical_formula_structural       CaOCaTiO2Si2OTiO6
_chemical_formula_sum              "Ca2 O10 Ti2 Si2"
_cell_length_a       5.50259468573856
_cell_length_b       5.4985031146993615
_cell_length_c       7.120081901550293
_cell_angle_alpha    104.25154146256989
_cell_angle_beta     104.23458138696671
_cell_angle_gamma    105.66880295188433

_space_group_name_H-M_alt    "P 1"
_space_group_IT_number       1

loop_
  _space_group_symop_operation_xyz
  'x, y, z'

loop_
  _atom_site_type_symbol
  _atom_site_label
  _atom_site_symmetry_multiplicity
  _atom_site_fract_x
  _atom_site_fract_y
  _atom_site_fract_z
  _atom_site_occupancy
  Ca  Ca1       1.0  0.71234130859375  0.7688162922859192  0.5054906010627747  1.0000
  O   O1        1.0  0.35528892278671265  0.32761609554290777  0.37295272946357727  1.0000
  Ca  Ca2       1.0  0.3710726499557495  0.11051465570926668  0.0056516025215387344  1.0000
  Ti  Ti1       1.0  0.041533485054969795  0.43969824910163885  0.2558828294277191  1.0000
  O   O2        1.0  0.7924255728721619  0.06191632896661759  0.16382767260074615  1.0000
  O   O3        1.0  0.11146532744169235  0.3706774413585663  0.005859877914190292  1.0000
  Si  Si1       1.0  0.36103036999702454  0.12056804448366165  0.5053836107254028  1.0000
  Si  Si2       1.0  0.7224715352058411  0.7592099905014038  0.005978716537356377  1.0000
  O   O4        1.0  0.9293608069419861  0.7527308464050293  0.8729734420776367  1.0000
  Ti  Ti2       1.0  0.041879724711179726  0.4398641288280487  0.7556248903274535  1.0000
  O   O5        1.0  0.42029544711112976  0.6892462968826295  0.847213625907898  1.0000
  O   O6        1.0  0.7283934950828552  0.5524265170097351  0.1387376934289932  1.0000
  O   O7        1.0  0.9722217917442322  0.5088564157485962  0.50584477186203  1.0000
  O   O8        1.0  0.6636337041854858  0.19027648866176605  0.6642992496490479  1.0000
  O   O9        1.0  0.2916862368583679  0.8180527091026306  0.3477512300014496  1.0000
  O   O10       1.0  0.1544567346572876  0.12697497010231018  0.6383817791938782  1.0000
