data_image0
_chemical_formula_structural       TiCaSiOSiO5
_chemical_formula_sum              "Ti1 Ca1 Si2 O6"
_cell_length_a       5.161758850212886
_cell_length_b       5.168878093969497
_cell_length_c       6.1220808029174805
_cell_angle_alpha    65.2541778944012
_cell_angle_beta     65.27943042681086
_cell_angle_gamma    60.18179379714457

_space_group_name_H-M_alt    "P 1"
_space_group_IT_number       1

loop_
  _space_group_symop_operation_xyz
  'x, y, z'

loop_
  _atom_site_type_symbol
  _atom_site_label
  _atom_site_symmetry_multiplicity
  _atom_site_fract_x
  _atom_site_fract_y
  _atom_site_fract_z
  _atom_site_occupancy
  Ti  Ti1       1.0  0.4219779372215271  0.8764334917068481  0.37725636363029486  1.0000
  Ca  Ca1       1.0  0.9218236804008484  0.3766665458679199  0.8774303793907167  1.0000
  Si  Si1       1.0  0.1602989584207535  0.6145352125167847  0.1622539311647415  1.0000
  O   O1        1.0  0.4525083601474762  0.30190718173980713  0.1486741304397583  1.0000
  Si  Si2       1.0  0.6833468079566956  0.13884374499320984  0.5928058624267578  1.0000
  O   O2        1.0  0.9978194832801819  0.10179157555103302  0.6064093708992004  1.0000
  O   O3        1.0  0.39080065488815313  0.45181402564048767  0.6065850853919983  1.0000
  O   O4        1.0  0.8465324640274047  0.6505014300346375  0.14898845553398132  1.0000
  O   O5        1.0  0.6482282280921936  0.8467096090316772  0.6072591543197632  1.0000
  O   O6        1.0  0.19562043249607083  0.9063121676445007  0.14794179797172546  1.0000
