data_image0
_chemical_formula_structural       SiTiO2CaOSiO5
_chemical_formula_sum              "Si2 Ti1 O8 Ca1"
_cell_length_a       5.357381791064748
_cell_length_b       5.360867977143543
_cell_length_c       6.5081610679626465
_cell_angle_alpha    89.9999615233429
_cell_angle_beta     89.9318918508882
_cell_angle_gamma    119.8876076489402

_space_group_name_H-M_alt    "P 1"
_space_group_IT_number       1

loop_
  _space_group_symop_operation_xyz
  'x, y, z'

loop_
  _atom_site_type_symbol
  _atom_site_label
  _atom_site_symmetry_multiplicity
  _atom_site_fract_x
  _atom_site_fract_y
  _atom_site_fract_z
  _atom_site_occupancy
  Si  Si1       1.0  0.31369075179100037  0.2284482717514038  0.4005537927150726  1.0000
  Ti  Ti1       1.0  0.6462802886962892  0.8950634598731996  0.6622169017791747  1.0000
  O   O1        1.0  0.810937762260437  0.22455604374408725  0.8479647636413573  1.0000
  O   O2        1.0  0.8107871413230896  0.7305575013160706  0.847884714603424  1.0000
  Ca  Ca1       1.0  0.6465543508529664  0.895171344280243  0.16165363788604734  1.0000
  O   O3        1.0  0.9757152199745178  0.05960794910788536  0.4761433005332946  1.0000
  Si  Si2       1.0  0.9794861674308777  0.5621895790100098  0.9239009618759154  1.0000
  O   O4        1.0  0.980044424533844  0.5618550777435304  0.17109109461307523  1.0000
  O   O5        1.0  0.4820314049720764  0.5662280321121216  0.47621661424636835  1.0000
  O   O6        1.0  0.3168730437755585  0.730608642101288  0.8479737043380736  1.0000
  O   O7        1.0  0.31273898482322693  0.22859682142734528  0.1534547358751297  1.0000
  O   O8        1.0  0.48232924938201904  0.05958729982376099  0.47602355480194086  1.0000
