data_image0
_chemical_formula_structural       TiOSi2OTi2CaTiCaSi
_chemical_formula_sum              "Ti4 O2 Si3 Ca2"
_cell_length_a       3.9707326091583903
_cell_length_b       3.9703222445610624
_cell_length_c       12.314988136291504
_cell_angle_alpha    99.27599951923098
_cell_angle_beta     99.20892791686175
_cell_angle_gamma    89.99907363637506

_space_group_name_H-M_alt    "P 1"
_space_group_IT_number       1

loop_
  _space_group_symop_operation_xyz
  'x, y, z'

loop_
  _atom_site_type_symbol
  _atom_site_label
  _atom_site_symmetry_multiplicity
  _atom_site_fract_x
  _atom_site_fract_y
  _atom_site_fract_z
  _atom_site_occupancy
  Ti  Ti1       1.0  0.3682109415531158  0.9256792664527892  0.61993008852005  1.0000
  O   O1        1.0  0.7213366627693175  0.7778020501136779  0.32631078362464905  1.0000
  Si  Si1       1.0  0.9401926994323729  0.997437298297882  0.7640771865844727  1.0000
  Si  Si2       1.0  0.796594738960266  0.8533696532249451  0.4769795536994934  1.0000
  O   O2        1.0  0.3650882542133331  0.42190191149711603  0.6141718626022339  1.0000
  Ti  Ti2       1.0  0.011513574048876757  0.5676605105400084  0.9059283137321472  1.0000
  Ti  Ti3       1.0  0.8681254982948302  0.4252788424491882  0.6198615431785583  1.0000
  Ca  Ca1       1.0  0.6259465813636779  0.6828189492225646  0.13540682196617126  1.0000
  Ti  Ti4       1.0  0.5110494494438171  0.06838646531105042  0.9066558480262756  1.0000
  Ca  Ca2       1.0  0.23530849814414975  0.29226005077362055  0.3533906638622284  1.0000
  Si  Si3       1.0  0.08632067590951918  0.14329156279563904  0.05584980919957161  1.0000
