data_image0
_chemical_formula_structural       Ca2TiSiO2TiO3SiO3
_chemical_formula_sum              "Ca2 Ti2 Si2 O8"
_cell_length_a       6.257787211708249
_cell_length_b       5.938268000071193
_cell_length_c       6.073287487030029
_cell_angle_alpha    118.85220497367389
_cell_angle_beta     121.14497572537422
_cell_angle_gamma    90.0661173803425

_space_group_name_H-M_alt    "P 1"
_space_group_IT_number       1

loop_
  _space_group_symop_operation_xyz
  'x, y, z'

loop_
  _atom_site_type_symbol
  _atom_site_label
  _atom_site_symmetry_multiplicity
  _atom_site_fract_x
  _atom_site_fract_y
  _atom_site_fract_z
  _atom_site_occupancy
  Ca  Ca1       1.0  0.7069113254547119  0.8491246104240417  0.8053871989250181  1.0000
  Ca  Ca2       1.0  0.2072766721248627  0.8493942618370057  0.806154191493988  1.0000
  Ti  Ti1       1.0  0.7072969675064087  0.849212884902954  0.3056549727916716  1.0000
  Si  Si1       1.0  0.3435675799846649  0.235259011387825  0.5767373442649841  1.0000
  O   O1        1.0  0.46202823519706726  0.13295093178749084  0.8162537217140198  1.0000
  O   O2        1.0  0.4067970812320709  0.5762803554534912  0.2589661180973053  1.0000
  Ti  Ti2       1.0  0.7072328329086304  0.34921035170555115  0.3053646087646484  1.0000
  O   O3        1.0  0.45947521924972534  0.5741956233978271  0.8109109401702881  1.0000
  O   O4        1.0  0.9515964388847351  0.565218985080719  0.7944704890251157  1.0000
  O   O5        1.0  0.9543331861495972  0.1240040361881256  0.7998510599136353  1.0000
  Si  Si2       1.0  0.07100085914134979  0.462608277797699  0.03401588276028633  1.0000
  O   O6        1.0  0.4553557336330414  0.12280163913965225  0.3532513678073883  1.0000
  O   O7        1.0  0.9604158997535706  0.5756126642227173  0.25826296210288985  1.0000
  O   O8        1.0  0.00815544929355383  0.12205815315246582  0.35212621092796326  1.0000
