data_image0
_chemical_formula_structural       SiO2Ca2O5TiOTiOSiO
_chemical_formula_sum              "Si2 O10 Ca2 Ti2"
_cell_length_a       5.495933627779418
_cell_length_b       5.496216424910671
_cell_length_c       7.1078362464904785
_cell_angle_alpha    104.38544501613703
_cell_angle_beta     104.37815049135762
_cell_angle_gamma    105.81536062481369

_space_group_name_H-M_alt    "P 1"
_space_group_IT_number       1

loop_
  _space_group_symop_operation_xyz
  'x, y, z'

loop_
  _atom_site_type_symbol
  _atom_site_label
  _atom_site_symmetry_multiplicity
  _atom_site_fract_x
  _atom_site_fract_y
  _atom_site_fract_z
  _atom_site_occupancy
  Si  Si1       1.0  0.9505654573440552  0.9887414574623107  0.9251390695571899  1.0000
  O   O1        1.0  0.15760710835456843  0.9822235703468322  0.7924127578735352  1.0000
  O   O2        1.0  0.5824875235557556  0.5572605133056641  0.29262036085128784  1.0000
  Ca  Ca1       1.0  0.9396669268608093  0.9982298016548156  0.4248778820037841  1.0000
  Ca  Ca2       1.0  0.5986850261688232  0.3397553861141205  0.9251968264579773  1.0000
  O   O3        1.0  0.19975854456424713  0.7392359972000122  0.42535752058029175  1.0000
  O   O4        1.0  0.3392584025859833  0.5997631549835205  0.9250696897506714  1.0000
  O   O5        1.0  0.5189592242240906  0.04739893972873688  0.26677873730659485  1.0000
  O   O6        1.0  0.9560351967811584  0.7816177606582642  0.05780816823244095  1.0000
  O   O7        1.0  0.020096149295568466  0.29197466373443604  0.08347296714782715  1.0000
  Ti  Ti1       1.0  0.2695084512233734  0.6694433093070984  0.17525893449783322  1.0000
  O   O8        1.0  0.38164710998535156  0.3565176725387573  0.5579659342765808  1.0000
  Ti  Ti2       1.0  0.26919105648994446  0.669247031211853  0.6749724745750427  1.0000
  O   O9        1.0  0.6478164792060852  0.9188388586044312  0.7661276459693909  1.0000
  Si  Si2       1.0  0.5886618494987488  0.3503977358341217  0.4250544309616089  1.0000
  O   O10       1.0  0.8915572166442871  0.42004653811454773  0.5838615298271179  1.0000
