data_image0
_chemical_formula_structural       TiCaTiCaOSiTiOSi
_chemical_formula_sum              "Ti3 Ca2 O2 Si2"
_cell_length_a       3.9599428045600007
_cell_length_b       3.974391721023727
_cell_length_c       10.064166069030762
_cell_angle_alpha    90.00605405238447
_cell_angle_beta     89.96051035054826
_cell_angle_gamma    89.96986087953411

_space_group_name_H-M_alt    "P 1"
_space_group_IT_number       1

loop_
  _space_group_symop_operation_xyz
  'x, y, z'

loop_
  _atom_site_type_symbol
  _atom_site_label
  _atom_site_symmetry_multiplicity
  _atom_site_fract_x
  _atom_site_fract_y
  _atom_site_fract_z
  _atom_site_occupancy
  Ti  Ti1       1.0  0.15439079701900485  0.1792872101068497  0.948047935962677  1.0000
  Ca  Ca1       1.0  0.6542545557022096  0.6794086694717407  0.06858102232217789  1.0000
  Ti  Ti2       1.0  0.1555258929729462  0.6796420216560364  0.36837655305862427  1.0000
  Ca  Ca2       1.0  0.15525500476360324  0.17977897822856903  0.6494196653366089  1.0000
  O   O1        1.0  0.6546335816383363  0.17944976687431335  0.9180194139480591  1.0000
  Si  Si1       1.0  0.6552755236625672  0.6797674894332886  0.5328454971313477  1.0000
  Ti  Ti3       1.0  0.6550957560539247  0.17945243418216705  0.36914387345314026  1.0000
  O   O2        1.0  0.15434287488460544  0.6799066066741943  0.924424946308136  1.0000
  Si  Si2       1.0  0.15493074059486392  0.1794426441192627  0.20678409934043884  1.0000
