data_image0
_chemical_formula_structural       OSiOCaOSiCaTiO3TiO2SiO
_chemical_formula_sum              "O9 Si3 Ca2 Ti2"
_cell_length_a       5.20751129409869
_cell_length_b       5.892444671614013
_cell_length_c       8.402887344360352
_cell_angle_alpha    106.20821145683153
_cell_angle_beta     106.73517508241598
_cell_angle_gamma    103.19719173545337

_space_group_name_H-M_alt    "P 1"
_space_group_IT_number       1

loop_
  _space_group_symop_operation_xyz
  'x, y, z'

loop_
  _atom_site_type_symbol
  _atom_site_label
  _atom_site_symmetry_multiplicity
  _atom_site_fract_x
  _atom_site_fract_y
  _atom_site_fract_z
  _atom_site_occupancy
  O   O1        1.0  0.507904052734375  0.3320047855377197  0.7292100191116333  1.0000
  Si  Si1       1.0  0.40697211027145386  0.5200086832046509  0.8736352324485779  1.0000
  O   O2        1.0  0.4220290184020996  0.7864269614219666  0.2507161796092987  1.0000
  Ca  Ca1       1.0  0.32431337237358093  0.90149986743927  0.5007528066635132  1.0000
  O   O3        1.0  0.8704172968864441  0.6607565879821777  0.45243874192237854  1.0000
  Si  Si2       1.0  0.6862801909446716  0.018202755600214005  0.27700984477996826  1.0000
  Ca  Ca2       1.0  0.812084972858429  0.18420365452766418  0.9400151968002319  1.0000
  Ti  Ti1       1.0  0.7632137537002563  0.5417405962944031  0.6174273490905762  1.0000
  O   O4        1.0  0.14118491113185883  0.6122769713401794  0.7806138396263123  1.0000
  O   O5        1.0  0.6435295939445496  0.20172218978405  0.16645851731300354  1.0000
  O   O6        1.0  0.2734486162662506  0.34275808930397034  0.9720125198364258  1.0000
  Ti  Ti2       1.0  0.5263805389404297  0.4844725131988525  0.23874688148498535  1.0000
  O   O7        1.0  0.7679625749588013  0.19177079200744626  0.4918641149997711  1.0000
  O   O8        1.0  0.34286123514175415  0.3831391036510467  0.3674681484699249  1.0000
  Si  Si3       1.0  0.830801784992218  0.7710878252983092  0.09625905752182007  1.0000
  O   O9        1.0  0.6498941779136658  0.805123507976532  0.7112123370170593  1.0000
