data_image0
_chemical_formula_structural       SiTiO5CaOCa
_chemical_formula_sum              "Si1 Ti1 O6 Ca2"
_cell_length_a       5.257444848419227
_cell_length_b       5.260039010163938
_cell_length_c       5.277698993682861
_cell_angle_alpha    119.97832326956134
_cell_angle_beta     119.91946401627044
_cell_angle_gamma    90.10447727180322

_space_group_name_H-M_alt    "P 1"
_space_group_IT_number       1

loop_
  _space_group_symop_operation_xyz
  'x, y, z'

loop_
  _atom_site_type_symbol
  _atom_site_label
  _atom_site_symmetry_multiplicity
  _atom_site_fract_x
  _atom_site_fract_y
  _atom_site_fract_z
  _atom_site_occupancy
  Si  Si1       1.0  0.37775856256484985  0.09399755299091339  0.48088639974594116  1.0000
  Ti  Ti1       1.0  0.8779023885726929  0.5941116213798523  0.48120588064193726  1.0000
  O   O1        1.0  0.10620555281639099  0.3001258671283722  0.4805704951286316  1.0000
  O   O2        1.0  0.13846251368522644  0.8541838526725769  0.001193404197692871  1.0000
  O   O3        1.0  0.6175833344459534  0.3338744640350342  0.9602062106132507  1.0000
  O   O4        1.0  0.6495212316513062  0.8879628777503968  0.4808277487754822  1.0000
  O   O5        1.0  0.5836759805679321  0.3654816150665283  0.48021256923675537  1.0000
  Ca  Ca1       1.0  0.12818729877471924  0.3440592288970947  0.981216311454773  1.0000
  O   O6        1.0  0.17167609930038452  0.8224757313728333  0.4807445406913757  1.0000
  Ca  Ca2       1.0  0.6278396248817444  0.8445773124694824  0.9807490110397339  1.0000
