data_image0
_chemical_formula_structural       OSiOSiTiO2CaO4
_chemical_formula_sum              "O8 Si2 Ti1 Ca1"
_cell_length_a       5.635496773318259
_cell_length_b       5.630604306031767
_cell_length_c       5.637145042419434
_cell_angle_alpha    106.54573974919431
_cell_angle_beta     106.59127468106084
_cell_angle_gamma    115.33645910671144

_space_group_name_H-M_alt    "P 1"
_space_group_IT_number       1

loop_
  _space_group_symop_operation_xyz
  'x, y, z'

loop_
  _atom_site_type_symbol
  _atom_site_label
  _atom_site_symmetry_multiplicity
  _atom_site_fract_x
  _atom_site_fract_y
  _atom_site_fract_z
  _atom_site_occupancy
  O   O1        1.0  0.3887293338775635  0.30764636397361755  0.8838678598403931  1.0000
  Si  Si1       1.0  0.4997877478599548  0.7198153138160704  0.5819377899169922  1.0000
  O   O2        1.0  0.9154189229011537  0.8328657150268554  0.2811799645423889  1.0000
  Si  Si2       1.0  0.7507333159446716  0.470902532339096  0.08197255432605743  1.0000
  Ti  Ti1       1.0  0.0010412045521661537  0.2219087779521942  0.5823944211006165  1.0000
  O   O3        1.0  0.7858968377113342  0.3069461584091186  0.28090885281562805  1.0000
  O   O4        1.0  0.8604822158813477  0.9067863225936889  0.7538860440254211  1.0000
  Ca  Ca1       1.0  0.25083136558532715  0.9710760116577148  0.08299869298934937  1.0000
  O   O5        1.0  0.31157177686691284  0.35889166593551636  0.4103546440601349  1.0000
  O   O6        1.0  0.3124661147594452  0.7057485580444336  0.7549155950546265  1.0000
  O   O7        1.0  0.9146539568901063  0.43469417095184326  0.88315749168396  1.0000
  O   O8        1.0  0.5174431800842285  0.90962016582489  0.41013965010643005  1.0000
