data_image0
_chemical_formula_structural       OCa4OCaSiO5TiSiO3
_chemical_formula_sum              "O10 Ca5 Si2 Ti1"
_cell_length_a       5.082832128423335
_cell_length_b       5.681404921085595
_cell_length_c       8.911908149719238
_cell_angle_alpha    83.60812046076387
_cell_angle_beta     107.13840978369808
_cell_angle_gamma    111.91566655975603

_space_group_name_H-M_alt    "P 1"
_space_group_IT_number       1

loop_
  _space_group_symop_operation_xyz
  'x, y, z'

loop_
  _atom_site_type_symbol
  _atom_site_label
  _atom_site_symmetry_multiplicity
  _atom_site_fract_x
  _atom_site_fract_y
  _atom_site_fract_z
  _atom_site_occupancy
  O   O1        1.0  0.1686996966600418  0.1721506863832474  0.9978668689727783  1.0000
  Ca  Ca1       1.0  0.9238871932029725  0.8495627641677858  0.7550745606422424  1.0000
  Ca  Ca2       1.0  0.21043907105922705  0.7036125659942628  0.5267404317855835  1.0000
  Ca  Ca3       1.0  0.46091574430465704  0.44407233595848083  0.282076895236969  1.0000
  Ca  Ca4       1.0  0.9850996136665345  0.7157632112503053  0.12108725309371948  1.0000
  O   O2        1.0  0.6171985864639282  0.4911830127239228  0.9040247797966003  1.0000
  Ca  Ca5       1.0  0.6463913917541504  0.09938618540763856  0.011507218703627599  1.0000
  Si  Si1       1.0  0.8603050112724304  0.10441885143518449  0.3883019983768463  1.0000
  O   O3        1.0  0.5531941652297974  0.0871969610452652  0.4226949214935303  1.0000
  O   O4        1.0  0.10876073688268661  0.09669127315282822  0.5541662573814392  1.0000
  O   O5        1.0  0.8247904181480408  0.88079434633255  0.2732389569282532  1.0000
  O   O6        1.0  0.0452326908707619  0.4634626507759095  0.7390502095222473  1.0000
  O   O7        1.0  0.3128902614116669  0.6736637949943544  0.022957848384976397  1.0000
  Ti  Ti1       1.0  0.5778916478157043  0.26485031843185425  0.6296955943107605  1.0000
  Si  Si2       1.0  0.2787835896015167  0.4506007134914399  0.9088953733444214  1.0000
  O   O8        1.0  0.548774003982544  0.9794090986251832  0.7575922608375549  1.0000
  O   O9        1.0  0.5956041812896729  0.5820607542991638  0.5413634777069092  1.0000
  O   O10       1.0  0.9635546803474427  0.3843012154102326  0.2935478091239929  1.0000
