data_image0
_chemical_formula_structural       Ca2TiOSiO5
_chemical_formula_sum              "Ca2 Ti1 O6 Si1"
_cell_length_a       5.261030050181614
_cell_length_b       5.2657775355210354
_cell_length_c       5.297211170196533
_cell_angle_alpha    119.82584761277968
_cell_angle_beta     119.80710662582902
_cell_angle_gamma    89.98947768086434

_space_group_name_H-M_alt    "P 1"
_space_group_IT_number       1

loop_
  _space_group_symop_operation_xyz
  'x, y, z'

loop_
  _atom_site_type_symbol
  _atom_site_label
  _atom_site_symmetry_multiplicity
  _atom_site_fract_x
  _atom_site_fract_y
  _atom_site_fract_z
  _atom_site_occupancy
  Ca  Ca1       1.0  0.9065361618995667  0.829576849937439  0.2711028456687927  1.0000
  Ca  Ca2       1.0  0.4065530300140381  0.33030170202255243  0.2708999216556549  1.0000
  Ti  Ti1       1.0  0.656172513961792  0.07933979481458664  0.7706321477890015  1.0000
  O   O1        1.0  0.8820347785949707  0.7829684019088745  0.7707327604293823  1.0000
  Si  Si1       1.0  0.15639184415340424  0.5796543955802917  0.7709590792655945  1.0000
  O   O2        1.0  0.9530080556869507  0.3053610324859619  0.7706843614578247  1.0000
  O   O3        1.0  0.35963708162307734  0.8541942238807677  0.7707620859146118  1.0000
  O   O4        1.0  0.3954848349094391  0.8188596963882446  0.24972642958164215  1.0000
  O   O5        1.0  0.9176405668258667  0.34043675661087036  0.29205968976020813  1.0000
  O   O6        1.0  0.4307469129562378  0.3763832747936249  0.7707528471946716  1.0000
