data_image0
_chemical_formula_structural       CaTiSiO
_chemical_formula_sum              "Ca1 Ti1 Si1 O1"
_cell_length_a       3.17704608000698
_cell_length_b       3.1796574767554993
_cell_length_c       7.131077766418457
_cell_angle_alpha    77.14835252691984
_cell_angle_beta     77.15737563026813
_cell_angle_gamma    60.084649873636366

_space_group_name_H-M_alt    "P 1"
_space_group_IT_number       1

loop_
  _space_group_symop_operation_xyz
  'x, y, z'

loop_
  _atom_site_type_symbol
  _atom_site_label
  _atom_site_symmetry_multiplicity
  _atom_site_fract_x
  _atom_site_fract_y
  _atom_site_fract_z
  _atom_site_occupancy
  Ca  Ca1       1.0  0.40587037801742554  0.6134248971939087  0.26351964473724365  1.0000
  Ti  Ti1       1.0  0.9416897892951966  0.14991497993469238  0.6557251214981079  1.0000
  Si  Si1       1.0  0.1844191998243332  0.3922998905181884  0.9277143478393555  1.0000
  O   O1        1.0  0.6669139862060547  0.8749317526817321  0.48087698221206665  1.0000
