data_image0
_chemical_formula_structural       CaTiOSi
_chemical_formula_sum              "Ca1 Ti1 O1 Si1"
_cell_length_a       3.2191515561399915
_cell_length_b       3.2219654302683294
_cell_length_c       7.140613079071045
_cell_angle_alpha    76.94209439236805
_cell_angle_beta     76.98225535481498
_cell_angle_gamma    60.05898663375449

_space_group_name_H-M_alt    "P 1"
_space_group_IT_number       1

loop_
  _space_group_symop_operation_xyz
  'x, y, z'

loop_
  _atom_site_type_symbol
  _atom_site_label
  _atom_site_symmetry_multiplicity
  _atom_site_fract_x
  _atom_site_fract_y
  _atom_site_fract_z
  _atom_site_occupancy
  Ca  Ca1       1.0  0.8739027976989746  0.9521256089210511  0.016607429832220078  1.0000
  Ti  Ti1       1.0  0.4093499779701233  0.48937216401100164  0.4084222614765167  1.0000
  O   O1        1.0  0.13420578837394714  0.21355818212032318  0.23379214107990265  1.0000
  Si  Si1       1.0  0.6525662541389463  0.7318193316459657  0.6808754205703735  1.0000
