data_image0
_chemical_formula_structural       Ca2SiO2SiO5Ti
_chemical_formula_sum              "Ca2 Si2 O7 Ti1"
_cell_length_a       5.241819210723046
_cell_length_b       5.117101699104087
_cell_length_c       6.795450210571289
_cell_angle_alpha    82.06318642756608
_cell_angle_beta     85.66385698252182
_cell_angle_gamma    86.91186255819794

_space_group_name_H-M_alt    "P 1"
_space_group_IT_number       1

loop_
  _space_group_symop_operation_xyz
  'x, y, z'

loop_
  _atom_site_type_symbol
  _atom_site_label
  _atom_site_symmetry_multiplicity
  _atom_site_fract_x
  _atom_site_fract_y
  _atom_site_fract_z
  _atom_site_occupancy
  Ca  Ca1       1.0  0.9191047549247742  0.9350895285606383  0.2963017523288727  1.0000
  Ca  Ca2       1.0  0.9767863750457764  0.39195048809051514  0.7994555830955505  1.0000
  Si  Si1       1.0  0.4124227464199066  0.01882380247116089  0.0029737767763435884  1.0000
  O   O1        1.0  0.3074369430541992  0.00043129920959472656  0.7764129042625427  1.0000
  O   O2        1.0  0.7151976227760315  0.6951254606246948  0.6255017518997192  1.0000
  Si  Si2       1.0  0.445038378238678  0.8524060249328613  0.5873931646347046  1.0000
  O   O3        1.0  0.5026320815086365  0.1039477363228798  0.41124460101127625  1.0000
  O   O4        1.0  0.23658566176891327  0.6486235857009888  0.5284631848335267  1.0000
  O   O5        1.0  0.21146957576274872  0.2523435950279236  0.08743459731340408  1.0000
  O   O6        1.0  0.7134469747543335  0.07612298429012299  0.9963552951812744  1.0000
  O   O7        1.0  0.31513580679893494  0.7480764985084534  0.13248217105865479  1.0000
  Ti  Ti1       1.0  0.3308106064796448  0.4299705922603607  0.30406761169433594  1.0000
