data_image0
_chemical_formula_structural       TiOSiOCaO5SiO
_chemical_formula_sum              "Ti1 O8 Si2 Ca1"
_cell_length_a       5.357026311704028
_cell_length_b       5.35817194778842
_cell_length_c       6.5298991203308105
_cell_angle_alpha    89.99688110788212
_cell_angle_beta     89.97095371099485
_cell_angle_gamma    119.9074831303245

_space_group_name_H-M_alt    "P 1"
_space_group_IT_number       1

loop_
  _space_group_symop_operation_xyz
  'x, y, z'

loop_
  _atom_site_type_symbol
  _atom_site_label
  _atom_site_symmetry_multiplicity
  _atom_site_fract_x
  _atom_site_fract_y
  _atom_site_fract_z
  _atom_site_occupancy
  Ti  Ti1       1.0  0.1496347337961197  0.821211040019989  0.0959753543138504  1.0000
  O   O1        1.0  0.3136340081691742  0.15058286488056183  0.9109995365142823  1.0000
  Si  Si1       1.0  0.4822908043861389  0.48867428302764887  0.8355484008789064  1.0000
  O   O2        1.0  0.9845620393753052  0.9853659868240356  0.28089576959609985  1.0000
  Ca  Ca1       1.0  0.14936557412147522  0.8213412165641785  0.5962271094322205  1.0000
  O   O3        1.0  0.4790252447128297  0.986101269721985  0.28054848313331604  1.0000
  O   O4        1.0  0.8160971999168396  0.15532447397708893  0.6021819710731506  1.0000
  O   O5        1.0  0.8201894760131836  0.6568996906280518  0.9110547304153443  1.0000
  O   O6        1.0  0.4828192889690399  0.48821690678596497  0.5894302129745483  1.0000
  O   O7        1.0  0.9853033423423767  0.4922838807106018  0.2806263267993927  1.0000
  Si  Si2       1.0  0.8169138431549072  0.15480861067771912  0.35619229078292847  1.0000
  O   O8        1.0  0.3138785660266876  0.6570860147476196  0.9114010334014894  1.0000
