data_image0
_chemical_formula_structural       Ca2OTiOSiO3
_chemical_formula_sum              "Ca2 O5 Ti1 Si1"
_cell_length_a       5.378312906962853
_cell_length_b       5.378179500565203
_cell_length_c       5.279927730560303
_cell_angle_alpha    117.14868528182413
_cell_angle_beta     116.92258016175543
_cell_angle_gamma    96.0851677305795

_space_group_name_H-M_alt    "P 1"
_space_group_IT_number       1

loop_
  _space_group_symop_operation_xyz
  'x, y, z'

loop_
  _atom_site_type_symbol
  _atom_site_label
  _atom_site_symmetry_multiplicity
  _atom_site_fract_x
  _atom_site_fract_y
  _atom_site_fract_z
  _atom_site_occupancy
  Ca  Ca1       1.0  0.4971960783004761  0.7533259987831115  0.5479933619499207  1.0000
  Ca  Ca2       1.0  0.9965881705284119  0.2542637884616852  0.5489632487297059  1.0000
  O   O1        1.0  0.973118007183075  0.27602919936180115  0.047800395637750626  1.0000
  Ti  Ti1       1.0  0.2212667167186737  0.028446247801184654  0.049240589141845724  1.0000
  O   O2        1.0  0.044736333191394806  0.7225338816642761  0.5673544406890869  1.0000
  Si  Si1       1.0  0.7681719064712524  0.48113253712654114  0.04774265736341485  1.0000
  O   O3        1.0  0.4717722535133362  0.37616038322448725  0.047127898782491684  1.0000
  O   O4        1.0  0.8704638481140137  0.7786066532135009  0.04924286529421806  1.0000
  O   O5        1.0  0.5267536044120789  0.20279665291309354  0.5275939106941223  1.0000
