data_image0
_chemical_formula_structural       Ca2TiSiO3SiOSiO2
_chemical_formula_sum              "Ca2 Ti1 Si3 O6"
_cell_length_a       5.454263269266988
_cell_length_b       5.816800492972857
_cell_length_c       8.227361679077148
_cell_angle_alpha    94.97969575316677
_cell_angle_beta     103.51148962386833
_cell_angle_gamma    123.18093044114991

_space_group_name_H-M_alt    "P 1"
_space_group_IT_number       1

loop_
  _space_group_symop_operation_xyz
  'x, y, z'

loop_
  _atom_site_type_symbol
  _atom_site_label
  _atom_site_symmetry_multiplicity
  _atom_site_fract_x
  _atom_site_fract_y
  _atom_site_fract_z
  _atom_site_occupancy
  Ca  Ca1       1.0  0.4492467939853668  0.30207377672195435  0.05822793021798134  1.0000
  Ca  Ca2       1.0  0.5847985744476318  0.8512547612190247  0.7623681426048279  1.0000
  Ti  Ti1       1.0  0.896309494972229  0.46183842420578003  0.4278538227081299  1.0000
  Si  Si1       1.0  0.9804571270942688  0.572289228439331  0.8605169653892517  1.0000
  O   O1        1.0  0.28823786973953247  0.6289413571357727  0.017056807875633226  1.0000
  O   O2        1.0  0.9919720888137817  0.6480526924133301  0.23431448638439178  1.0000
  O   O3        1.0  0.06172347813844681  0.5464797616004944  0.6840894222259521  1.0000
  Si  Si2       1.0  0.3412857949733734  0.748848557472229  0.2369423806667328  1.0000
  O   O4        1.0  0.5767645835876465  0.09078899770975113  0.26845309138298035  1.0000
  Si  Si3       1.0  0.4722272455692291  0.5489725470542908  0.42059361934661865  1.0000
  O   O5        1.0  0.9883328080177307  0.8591547608375549  0.9094588160514832  1.0000
  O   O6        1.0  0.661948561668396  0.2749083638191223  0.851006269454956  1.0000
