data_image0
_chemical_formula_structural       TiCaSi2O6
_chemical_formula_sum              "Ti1 Ca1 Si2 O6"
_cell_length_a       4.415469879634629
_cell_length_b       5.139163574671913
_cell_length_c       6.23290491104126
_cell_angle_alpha    105.42121677145734
_cell_angle_beta     89.17132288104887
_cell_angle_gamma    95.5907445713378

_space_group_name_H-M_alt    "P 1"
_space_group_IT_number       1

loop_
  _space_group_symop_operation_xyz
  'x, y, z'

loop_
  _atom_site_type_symbol
  _atom_site_label
  _atom_site_symmetry_multiplicity
  _atom_site_fract_x
  _atom_site_fract_y
  _atom_site_fract_z
  _atom_site_occupancy
  Ti  Ti1       1.0  0.23057381808757782  0.3587050139904022  0.21088744699954987  1.0000
  Ca  Ca1       1.0  0.6921327114105225  0.7723544239997863  0.941586971282959  1.0000
  Si  Si1       1.0  0.15921363234519958  0.19193625450134277  0.7520674467086792  1.0000
  Si  Si2       1.0  0.6415417790412903  0.0031704993452876806  0.42596498131752014  1.0000
  O   O1        1.0  0.3883056342601776  0.21988776326179502  0.5419514775276184  1.0000
  O   O2        1.0  0.8586540222167969  0.9814646840095519  0.6343841552734375  1.0000
  O   O3        1.0  0.8355560898780823  0.13911625742912292  0.2521939277648926  1.0000
  O   O4        1.0  0.31679603457450867  0.052794475108385086  0.9249181151390076  1.0000
  O   O5        1.0  0.07235253602266312  0.4785034954547882  0.907241702079773  1.0000
  O   O6        1.0  0.48884332180023193  0.7092479467391968  0.28721708059310913  1.0000
