data_image0
_chemical_formula_structural       CaTi2OSi2
_chemical_formula_sum              "Ca1 Ti2 O1 Si2"
_cell_length_a       4.114818319467595
_cell_length_b       4.1127138408612245
_cell_length_c       5.72247838973999
_cell_angle_alpha    89.99342503267829
_cell_angle_beta     89.98112386029719
_cell_angle_gamma    89.98925861680644

_space_group_name_H-M_alt    "P 1"
_space_group_IT_number       1

loop_
  _space_group_symop_operation_xyz
  'x, y, z'

loop_
  _atom_site_type_symbol
  _atom_site_label
  _atom_site_symmetry_multiplicity
  _atom_site_fract_x
  _atom_site_fract_y
  _atom_site_fract_z
  _atom_site_occupancy
  Ca  Ca1       1.0  0.49165403842926025  0.7181196808815002  0.25875961780548096  1.0000
  Ti  Ti1       1.0  0.4918532073497772  0.21842657029628756  0.7589401602745056  1.0000
  Ti  Ti2       1.0  0.9921108484268188  0.7183160185813905  0.7589401602745056  1.0000
  O   O1        1.0  0.4917827546596527  0.7182964086532594  0.7583120465278625  1.0000
  Si  Si1       1.0  0.9917902946472168  0.21815599501132965  0.05299808084964752  1.0000
  Si  Si2       1.0  0.9918317198753357  0.2181418538093567  0.4647180140018463  1.0000
