data_image0
_chemical_formula_structural       CaTiSiO3CaO3
_chemical_formula_sum              "Ca2 Ti1 Si1 O6"
_cell_length_a       5.292187192279947
_cell_length_b       5.2923387474458226
_cell_length_c       5.294567108154297
_cell_angle_alpha    60.01072549553828
_cell_angle_beta     59.99677783440007
_cell_angle_gamma    59.99881938343093

_space_group_name_H-M_alt    "P 1"
_space_group_IT_number       1

loop_
  _space_group_symop_operation_xyz
  'x, y, z'

loop_
  _atom_site_type_symbol
  _atom_site_label
  _atom_site_symmetry_multiplicity
  _atom_site_fract_x
  _atom_site_fract_y
  _atom_site_fract_z
  _atom_site_occupancy
  Ca  Ca1       1.0  0.1222725808620453  0.45909595489501953  0.831168532371521  1.0000
  Ti  Ti1       1.0  0.8723682165145874  0.20931309461593625  0.5805305838584901  1.0000
  Si  Si1       1.0  0.37219592928886414  0.7091535925865173  0.08066931366920471  1.0000
  O   O1        1.0  0.13308733701705933  0.9485278129577636  0.31961807608604437  1.0000
  O   O2        1.0  0.6112101674079893  0.9486815333366395  0.8413634896278381  1.0000
  O   O3        1.0  0.6114577651023865  0.46998825669288635  0.8417823314666748  1.0000
  Ca  Ca2       1.0  0.6221266984939575  0.9592689275741576  0.3302990794181824  1.0000
  O   O4        1.0  0.13335816562175756  0.47000893950462336  0.31968703866004944  1.0000
  O   O5        1.0  0.13323636353015894  0.9477840065956116  0.8416242599487305  1.0000
  O   O6        1.0  0.6113837957382202  0.47071459889411926  0.3196544945240021  1.0000
