data_image0
_chemical_formula_structural       CaTiOSiO4SiO2
_chemical_formula_sum              "Ca1 Ti1 O7 Si2"
_cell_length_a       4.646970744954551
_cell_length_b       5.3985245471071766
_cell_length_c       5.400731563568115
_cell_angle_alpha    102.49722113036549
_cell_angle_beta     96.85396101928079
_cell_angle_gamma    96.85213597259482

_space_group_name_H-M_alt    "P 1"
_space_group_IT_number       1

loop_
  _space_group_symop_operation_xyz
  'x, y, z'

loop_
  _atom_site_type_symbol
  _atom_site_label
  _atom_site_symmetry_multiplicity
  _atom_site_fract_x
  _atom_site_fract_y
  _atom_site_fract_z
  _atom_site_occupancy
  Ca  Ca1       1.0  0.8445488214492798  0.755707323551178  0.34090623259544367  1.0000
  Ti  Ti1       1.0  0.8452505469322205  0.1498086303472519  0.9464462399482727  1.0000
  O   O1        1.0  0.6414492130279541  0.33681580424308777  0.20416195690631866  1.0000
  Si  Si1       1.0  0.2653244137763977  0.6893948316574096  0.834717333316803  1.0000
  O   O2        1.0  0.6081657409667969  0.13263975083827972  0.6166148781776428  1.0000
  O   O3        1.0  0.5705896615982056  0.8434371948242186  0.004950563888996798  1.0000
  O   O4        1.0  0.08178022503852843  0.47965642809867853  0.9626819491386414  1.0000
  O   O5        1.0  0.11893781274557114  0.0908040702342987  0.25191622972488403  1.0000
  Si  Si2       1.0  0.4243018329143524  0.26127383112907404  0.40639951825141907  1.0000
  O   O6        1.0  0.344645231962204  0.5440555214881897  0.5517036318778992  1.0000
  O   O7        1.0  0.04819409176707268  0.8916117548942566  0.759574830532074  1.0000
