data_image0
_chemical_formula_structural       TiSiO2CaOTiO3
_chemical_formula_sum              "Ti2 Si1 O6 Ca1"
_cell_length_a       5.1638107385560374
_cell_length_b       5.160665454687699
_cell_length_c       5.53424596786499
_cell_angle_alpha    62.099816962507504
_cell_angle_beta     62.103588794944116
_cell_angle_gamma    60.10817163675609

_space_group_name_H-M_alt    "P 1"
_space_group_IT_number       1

loop_
  _space_group_symop_operation_xyz
  'x, y, z'

loop_
  _atom_site_type_symbol
  _atom_site_label
  _atom_site_symmetry_multiplicity
  _atom_site_fract_x
  _atom_site_fract_y
  _atom_site_fract_z
  _atom_site_occupancy
  Ti  Ti1       1.0  0.03317390754818916  0.8214189410209656  0.5206667184829712  1.0000
  Si  Si1       1.0  0.7196742296218872  0.5080743432044983  0.45811477303504955  1.0000
  O   O1        1.0  0.34343829751014715  0.6635255813598633  0.7129082679748535  1.0000
  O   O2        1.0  0.09490515291690828  0.26415714621543884  0.2612963020801544  1.0000
  Ca  Ca1       1.0  0.24390186369419098  0.03352382779121399  0.8817313313484192  1.0000
  O   O3        1.0  0.875166356563568  0.47574761509895325  0.7119907140731813  1.0000
  Ti  Ti2       1.0  0.5212733745574951  0.30881497263908386  0.056816693395376205  1.0000
  O   O4        1.0  0.47575005888938904  0.5758389234542847  0.2609036862850189  1.0000
  O   O5        1.0  0.6865038275718689  0.13049760460853577  0.712793231010437  1.0000
  O   O6        1.0  0.7870857119560243  0.8834848403930663  0.2592792510986328  1.0000
