data_image0
_chemical_formula_structural       CaSiO2TiCaO2TiO3SiO2
_chemical_formula_sum              "Ca2 Si2 O9 Ti2"
_cell_length_a       5.857274411706971
_cell_length_b       5.851415052560851
_cell_length_c       6.77747106552124
_cell_angle_alpha    89.96913688110831
_cell_angle_beta     89.98001736929686
_cell_angle_gamma    120.00201163683063

_space_group_name_H-M_alt    "P 1"
_space_group_IT_number       1

loop_
  _space_group_symop_operation_xyz
  'x, y, z'

loop_
  _atom_site_type_symbol
  _atom_site_label
  _atom_site_symmetry_multiplicity
  _atom_site_fract_x
  _atom_site_fract_y
  _atom_site_fract_z
  _atom_site_occupancy
  Ca  Ca1       1.0  0.7518102526664734  0.5768868327140807  0.9413176178932189  1.0000
  Si  Si1       1.0  0.41788449883461  0.910332441329956  0.10776346176862715  1.0000
  O   O1        1.0  0.8960902094841003  0.43138813972473145  0.6215724945068359  1.0000
  O   O2        1.0  0.2724727690219879  0.056102219969034195  0.9843237996101378  1.0000
  Ti  Ti1       1.0  0.08410485088825226  0.24374134838581085  0.5586212873458862  1.0000
  Ca  Ca2       1.0  0.4175326228141784  0.9102190136909484  0.6643643975257874  1.0000
  O   O3        1.0  0.08465751260519026  0.24418500065803525  0.30383622646331787  1.0000
  O   O4        1.0  0.41836899518966675  0.910800278186798  0.3430216610431671  1.0000
  Ti  Ti2       1.0  0.08530017733573912  0.24357059597969052  0.04831397160887718  1.0000
  O   O5        1.0  0.7095419764518738  0.05657980591058731  0.9842554330825805  1.0000
  O   O6        1.0  0.46031299233436584  0.43136411905288696  0.6215487718582153  1.0000
  O   O7        1.0  0.7507925033569336  0.57649827003479  0.26270362734794617  1.0000
  Si  Si2       1.0  0.7508491277694702  0.5768242478370667  0.49787077307701105  1.0000
  O   O8        1.0  0.27207714319229126  0.6194873452186583  0.9842983484268187  1.0000
  O   O9        1.0  0.8963331580162048  0.867030680179596  0.6216668486595154  1.0000
