data_image0
_chemical_formula_structural       OTi2CaTiSi2TiSiOCaO
_chemical_formula_sum              "O3 Ti4 Ca2 Si3"
_cell_length_a       4.133514319104127
_cell_length_b       4.132349750068472
_cell_length_c       11.438156127929688
_cell_angle_alpha    100.34499951048245
_cell_angle_beta     100.34958379524555
_cell_angle_gamma    90.0237511734836

_space_group_name_H-M_alt    "P 1"
_space_group_IT_number       1

loop_
  _space_group_symop_operation_xyz
  'x, y, z'

loop_
  _atom_site_type_symbol
  _atom_site_label
  _atom_site_symmetry_multiplicity
  _atom_site_fract_x
  _atom_site_fract_y
  _atom_site_fract_z
  _atom_site_occupancy
  O   O1        1.0  0.9014298915863037  0.3974647521972657  0.3900933861732483  1.0000
  Ti  Ti1       1.0  0.4773825407028198  0.47236931324005127  0.5399845838546753  1.0000
  Ti  Ti2       1.0  0.3264777362346649  0.32358723878860474  0.242275208234787  1.0000
  Ca  Ca1       1.0  0.09743009507656097  0.5924999117851257  0.7809649109840393  1.0000
  Ti  Ti3       1.0  0.8276488184928894  0.8240468502044678  0.2430211752653122  1.0000
  Si  Si1       1.0  0.40192753076553345  0.8978129029273987  0.39129215478897095  1.0000
  Si  Si2       1.0  0.24530676007270813  0.7421352863311768  0.07960541546344757  1.0000
  Ti  Ti4       1.0  0.9770408272743225  0.9727931022644044  0.5399963855743408  1.0000
  Si  Si3       1.0  0.5592445731163025  0.0544557087123394  0.7029095888137817  1.0000
  O   O2        1.0  0.9924600720405579  0.48732638359069824  0.5711663961410522  1.0000
  Ca  Ca2       1.0  0.7076118588447571  0.20382727682590485  0.002428251784294853  1.0000
  O   O3        1.0  0.814493477344513  0.31071114540100103  0.2161400467157364  1.0000
