data_image0
_chemical_formula_structural       SiCaO2
_chemical_formula_sum              "Si1 Ca1 O2"
_cell_length_a       3.478110896827185
_cell_length_b       3.493749943521477
_cell_length_c       5.141470432281494
_cell_angle_alpha    89.88336336438569
_cell_angle_beta     89.98581620094896
_cell_angle_gamma    119.53601592105618

_space_group_name_H-M_alt    "P 1"
_space_group_IT_number       1

loop_
  _space_group_symop_operation_xyz
  'x, y, z'

loop_
  _atom_site_type_symbol
  _atom_site_label
  _atom_site_symmetry_multiplicity
  _atom_site_fract_x
  _atom_site_fract_y
  _atom_site_fract_z
  _atom_site_occupancy
  Si  Si1       1.0  0.29423454403877264  0.7424028515815736  0.4955034255981446  1.0000
  Ca  Ca1       1.0  0.960625946521759  0.07813269644975662  0.9286901950836183  1.0000
  O   O1        1.0  0.6253889799118042  0.4118677079677582  0.621493935585022  1.0000
  O   O2        1.0  0.294664204120636  0.7439824342727661  0.1665598750114441  1.0000
