data_image0
_chemical_formula_structural       CaTiCaO2SiOSiOTiO5SiO
_chemical_formula_sum              "Ca2 Ti2 O10 Si3"
_cell_length_a       5.525500760031694
_cell_length_b       6.578575414264372
_cell_length_c       6.651958465576172
_cell_angle_alpha    108.19735875319115
_cell_angle_beta     105.89256863607517
_cell_angle_gamma    95.84646669002703

_space_group_name_H-M_alt    "P 1"
_space_group_IT_number       1

loop_
  _space_group_symop_operation_xyz
  'x, y, z'

loop_
  _atom_site_type_symbol
  _atom_site_label
  _atom_site_symmetry_multiplicity
  _atom_site_fract_x
  _atom_site_fract_y
  _atom_site_fract_z
  _atom_site_occupancy
  Ca  Ca1       1.0  0.9145189523696899  0.091522715985775  0.44625359773635864  1.0000
  Ti  Ti1       1.0  0.19250223040580744  0.9688016772270202  0.9418003559112549  1.0000
  Ca  Ca2       1.0  0.4755806028842926  0.5625110268592834  0.9433614611625671  1.0000
  O   O1        1.0  0.9225745797157288  0.7173064351081847  0.32593005895614624  1.0000
  O   O2        1.0  0.20821405947208405  0.4657999873161316  0.5823543071746826  1.0000
  Si  Si1       1.0  0.6408069133758545  0.07576076686382294  0.8741450309753418  1.0000
  O   O3        1.0  0.8062543272972107  0.3383695781230926  0.0032345056533813477  1.0000
  Si  Si2       1.0  0.024963265284895897  0.5711809396743774  0.13433347642421725  1.0000
  O   O4        1.0  0.8092934489250183  0.951349914073944  0.7219421863555908  1.0000
  Ti  Ti2       1.0  0.9347452521324158  0.656606137752533  0.6116419434547424  1.0000
  O   O5        1.0  0.31273582577705383  0.5239431858062744  0.23235987126827246  1.0000
  O   O6        1.0  0.5869438648223877  0.9447532296180725  0.041602592915296624  1.0000
  O   O7        1.0  0.052973538637161255  0.6748695969581604  0.9508252143859863  1.0000
  O   O8        1.0  0.19531643390655518  0.12521910667419434  0.24366101622581482  1.0000
  O   O9        1.0  0.3438325524330139  0.10902848094701766  0.7594512701034546  1.0000
  Si  Si3       1.0  0.35509321093559265  0.37397703528404236  0.39847204089164734  1.0000
  O   O10       1.0  0.6610363721847534  0.38990172743797297  0.5150496363639832  1.0000
