data_image0
_chemical_formula_structural       Ca2TiO2TiOCaO4SiO3
_chemical_formula_sum              "Ca3 Ti2 O10 Si1"
_cell_length_a       5.600520568994388
_cell_length_b       6.490620237421439
_cell_length_c       6.943795204162598
_cell_angle_alpha    105.67831819722579
_cell_angle_beta     99.9844752684175
_cell_angle_gamma    98.89332619623994

_space_group_name_H-M_alt    "P 1"
_space_group_IT_number       1

loop_
  _space_group_symop_operation_xyz
  'x, y, z'

loop_
  _atom_site_type_symbol
  _atom_site_label
  _atom_site_symmetry_multiplicity
  _atom_site_fract_x
  _atom_site_fract_y
  _atom_site_fract_z
  _atom_site_occupancy
  Ca  Ca1       1.0  0.09705578535795212  0.7168829441070557  0.43981197476387024  1.0000
  Ca  Ca2       1.0  0.48916247487068176  0.2957232594490051  0.9914066791534423  1.0000
  Ti  Ti1       1.0  0.6670097708702087  0.9216438531875611  0.2122783660888672  1.0000
  O   O1        1.0  0.7563621401786804  0.00205075740814209  0.9725657701492308  1.0000
  O   O2        1.0  0.8780962228775024  0.008025402203202248  0.47499683499336237  1.0000
  Ti  Ti2       1.0  0.9077346920967102  0.09414073824882507  0.7682468295097351  1.0000
  O   O3        1.0  0.34796079993247986  0.8182765245437622  0.21116206049919128  1.0000
  Ca  Ca3       1.0  0.018881842494010946  0.6892571449279786  0.92450612783432  1.0000
  O   O4        1.0  0.1748562455177307  0.9514984488487244  0.79430091381073  1.0000
  O   O5        1.0  0.09911907464265823  0.3561607003211975  0.901129126548767  1.0000
  O   O6        1.0  0.5812617540359497  0.22878204286098483  0.2960442304611206  1.0000
  O   O7        1.0  0.7753391265869141  0.5962383151054382  0.592049777507782  1.0000
  Si  Si1       1.0  0.5669241547584534  0.379890650510788  0.5196841359138489  1.0000
  O   O8        1.0  0.7624863982200623  0.6536914110183716  0.1375921666622162  1.0000
  O   O9        1.0  0.288696825504303  0.4378128647804261  0.4962309002876281  1.0000
  O   O10       1.0  0.6098418831825256  0.24663364887237552  0.6892207264900208  1.0000
