data_image0
_chemical_formula_structural       SiCaO3TiOCaO2
_chemical_formula_sum              "Si1 Ca2 O6 Ti1"
_cell_length_a       5.295395715714401
_cell_length_b       5.299058353652338
_cell_length_c       5.298641681671143
_cell_angle_alpha    59.94698537019112
_cell_angle_beta     59.95410987142836
_cell_angle_gamma    59.933667958791744

_space_group_name_H-M_alt    "P 1"
_space_group_IT_number       1

loop_
  _space_group_symop_operation_xyz
  'x, y, z'

loop_
  _atom_site_type_symbol
  _atom_site_label
  _atom_site_symmetry_multiplicity
  _atom_site_fract_x
  _atom_site_fract_y
  _atom_site_fract_z
  _atom_site_occupancy
  Si  Si1       1.0  0.7700749039649963  0.4734558165073395  0.539795219898224  1.0000
  Ca  Ca1       1.0  0.01996254175901413  0.7234779000282288  0.7902904748916626  1.0000
  O   O1        1.0  0.009085163474082947  0.23467035591602325  0.779079020023346  1.0000
  O   O2        1.0  0.5311539173126221  0.7125694155693054  0.7790023684501648  1.0000
  O   O3        1.0  0.009022836573421943  0.23466444015502932  0.3009374141693115  1.0000
  Ti  Ti1       1.0  0.2700124680995941  0.9735379219055177  0.039894118905067444  1.0000
  O   O4        1.0  0.5312113165855408  0.2346203178167343  0.7789308428764343  1.0000
  Ca  Ca2       1.0  0.5201315879821777  0.22347944974899292  0.2895611226558686  1.0000
  O   O5        1.0  0.009160288609564304  0.7125700116157532  0.30093213915824896  1.0000
  O   O6        1.0  0.531171977519989  0.7124258875846863  0.3009479343891145  1.0000
