data_image329
_chemical_formula_structural       Ca2OTiO5Si
_chemical_formula_sum              "Ca2 O6 Ti1 Si1"
_cell_length_a       5.264256792616071
_cell_length_b       5.266612544415556
_cell_length_c       5.300055980682373
_cell_angle_alpha    119.76598918235221
_cell_angle_beta     119.75848734676708
_cell_angle_gamma    89.99593961248785

_space_group_name_H-M_alt    "P 1"
_space_group_IT_number       1

loop_
  _space_group_symop_operation_xyz
  'x, y, z'

loop_
  _atom_site_type_symbol
  _atom_site_label
  _atom_site_symmetry_multiplicity
  _atom_site_fract_x
  _atom_site_fract_y
  _atom_site_fract_z
  _atom_site_occupancy
  Ca  Ca1       1.0  0.7076272964477539  0.5130130648612976  0.9877291321754456  1.0000
  Ca  Ca2       1.0  0.20759278535842896  0.013421398587524891  0.9874488115310669  1.0000
  O   O1        1.0  0.7184759378433228  0.02418268658220768  0.008618402294814587  1.0000
  Ti  Ti1       1.0  0.45773079991340637  0.7634382247924805  0.48772007226943975  1.0000
  O   O2        1.0  0.23019421100616455  0.05822543427348136  0.48792529106140137  1.0000
  O   O3        1.0  0.6852062344551086  0.4688164889812469  0.4876798689365387  1.0000
  O   O4        1.0  0.16272416710853577  0.5356201529502869  0.4872254729270935  1.0000
  O   O5        1.0  0.7523291110992432  0.9911035299301149  0.4878655672073364  1.0000
  O   O6        1.0  0.1969364881515503  0.5026482939720154  0.9668832421302795  1.0000
  Si  Si1       1.0  0.9578536152839661  0.26340872049331665  0.4877195060253142  1.0000
