data_image135
_chemical_formula_structural       CaSiOSi
_chemical_formula_sum              "Ca1 Si2 O1"
_cell_length_a       3.815543020005353
_cell_length_b       3.8207758480096445
_cell_length_c       6.156458377838135
_cell_angle_alpha    90.0241403930412
_cell_angle_beta     108.14538956892532
_cell_angle_gamma    119.94402156432973

_space_group_name_H-M_alt    "P 1"
_space_group_IT_number       1

loop_
  _space_group_symop_operation_xyz
  'x, y, z'

loop_
  _atom_site_type_symbol
  _atom_site_label
  _atom_site_symmetry_multiplicity
  _atom_site_fract_x
  _atom_site_fract_y
  _atom_site_fract_z
  _atom_site_occupancy
  Ca  Ca1       1.0  0.06250021606683731  0.07917961478233337  0.6463977098464966  1.0000
  Si  Si1       1.0  0.4441604018211365  0.2706049382686615  0.21937236189842224  1.0000
  O   O1        1.0  0.6393786072731018  0.36847144365310663  0.5118223428726196  1.0000
  Si  Si2       1.0  0.6712704300880432  0.8831909298896788  0.06060761585831641  1.0000
