data_image234
_chemical_formula_structural       CaSiOTiSiO7
_chemical_formula_sum              "Ca1 Si2 O8 Ti1"
_cell_length_a       5.353773782844166
_cell_length_b       5.351002921067958
_cell_length_c       6.530316352844238
_cell_angle_alpha    89.96192419990984
_cell_angle_beta     89.98477801141829
_cell_angle_gamma    119.91505145065383

_space_group_name_H-M_alt    "P 1"
_space_group_IT_number       1

loop_
  _space_group_symop_operation_xyz
  'x, y, z'

loop_
  _atom_site_type_symbol
  _atom_site_label
  _atom_site_symmetry_multiplicity
  _atom_site_fract_x
  _atom_site_fract_y
  _atom_site_fract_z
  _atom_site_occupancy
  Ca  Ca1       1.0  0.444257527589798  0.366788387298584  0.4354691803455353  1.0000
  Si  Si1       1.0  0.7773129940032959  0.03373517468571663  0.6750836372375488  1.0000
  O   O1        1.0  0.7773860096931458  0.03307555243372917  0.42866694927215576  1.0000
  Ti  Ti1       1.0  0.44443586468696594  0.3670414686203003  0.9352532625198364  1.0000
  Si  Si2       1.0  0.11120826005935673  0.7000132799148561  0.195647194981575  1.0000
  O   O2        1.0  0.11118154227733609  0.700103223323822  0.442127525806427  1.0000
  O   O3        1.0  0.2797936499118805  0.5311239361763  0.12053606659173965  1.0000
  O   O4        1.0  0.6088487505912782  0.6959452033042909  0.7503838539123535  1.0000
  O   O5        1.0  0.11517308652400972  0.2023015767335892  0.7503000497817993  1.0000
  O   O6        1.0  0.27994298934936523  0.03767964616417885  0.12077616900205612  1.0000
  O   O7        1.0  0.6086834073066713  0.20226126909255984  0.750383198261261  1.0000
  O   O8        1.0  0.773393988609314  0.5310081839561462  0.12073414772748947  1.0000
