data_image114
_chemical_formula_structural       OSiCaO
_chemical_formula_sum              "O2 Si1 Ca1"
_cell_length_a       3.487917891825896
_cell_length_b       3.49788346451687
_cell_length_c       6.037477970123291
_cell_angle_alpha    73.35708509498042
_cell_angle_beta     73.33976304015935
_cell_angle_gamma    60.46404452351947

_space_group_name_H-M_alt    "P 1"
_space_group_IT_number       1

loop_
  _space_group_symop_operation_xyz
  'x, y, z'

loop_
  _atom_site_type_symbol
  _atom_site_label
  _atom_site_symmetry_multiplicity
  _atom_site_fract_x
  _atom_site_fract_y
  _atom_site_fract_z
  _atom_site_occupancy
  O   O1        1.0  0.03960524499416352  0.28905194997787476  0.5080620050430298  1.0000
  Si  Si1       1.0  0.9435532689094542  0.1929393261671066  0.7967285513877869  1.0000
  Ca  Ca1       1.0  0.44434463977813715  0.6933574080467224  0.2963758707046509  1.0000
  O   O2        1.0  0.8480628728866576  0.09732410311698912  0.08448413759469986  1.0000
