data_image302
_chemical_formula_structural       OCaO2SiO2TiOSiO
_chemical_formula_sum              "O7 Ca1 Si2 Ti1"
_cell_length_a       5.381463507637663
_cell_length_b       5.5473744892887735
_cell_length_c       6.534092426300049
_cell_angle_alpha    96.9924697304645
_cell_angle_beta     89.88697653081928
_cell_angle_gamma    118.90524823074237

_space_group_name_H-M_alt    "P 1"
_space_group_IT_number       1

loop_
  _space_group_symop_operation_xyz
  'x, y, z'

loop_
  _atom_site_type_symbol
  _atom_site_label
  _atom_site_symmetry_multiplicity
  _atom_site_fract_x
  _atom_site_fract_y
  _atom_site_fract_z
  _atom_site_occupancy
  O   O1        1.0  0.3897067904472351  0.9293449521064758  0.3907337784767151  1.0000
  Ca  Ca1       1.0  0.8872690200805664  0.9215347170829773  0.40144139528274536  1.0000
  O   O2        1.0  0.2491818368434906  0.16459479928016663  0.6973147988319397  1.0000
  O   O3        1.0  0.202373668551445  0.5487087368965149  0.03904864937067032  1.0000
  Si  Si1       1.0  0.3655515611171723  0.8799611926078797  0.13447239995002747  1.0000
  O   O4        1.0  0.6994544267654419  0.02262386679649353  0.08196090161800385  1.0000
  O   O5        1.0  0.7678257822990417  0.16440431773662567  0.6978156566619873  1.0000
  Ti  Ti1       1.0  0.02135620452463627  0.1920870691537857  0.9183043241500856  1.0000
  O   O6        1.0  0.17206710577011108  0.01907561533153057  0.08137287199497223  1.0000
  Si  Si2       1.0  0.535262405872345  0.21967338025569916  0.5733287930488586  1.0000
  O   O7        1.0  0.680281937122345  0.5078951120376587  0.4836334884166718  1.0000
