data_image295
_chemical_formula_structural       SiOCaSi
_chemical_formula_sum              "Si2 O1 Ca1"
_cell_length_a       3.7630130299390037
_cell_length_b       3.767195114429767
_cell_length_c       6.287985324859619
_cell_angle_alpha    72.62029956912806
_cell_angle_beta     72.63380827979418
_cell_angle_gamma    60.006143901232875

_space_group_name_H-M_alt    "P 1"
_space_group_IT_number       1

loop_
  _space_group_symop_operation_xyz
  'x, y, z'

loop_
  _atom_site_type_symbol
  _atom_site_label
  _atom_site_symmetry_multiplicity
  _atom_site_fract_x
  _atom_site_fract_y
  _atom_site_fract_z
  _atom_site_occupancy
  Si  Si1       1.0  0.22175294160842893  0.43305945396423345  0.8390066623687744  1.0000
  O   O1        1.0  0.3162851631641388  0.5284682512283325  0.554938554763794  1.0000
  Ca  Ca1       1.0  0.7040158510208129  0.9166022539138795  0.3900013566017151  1.0000
  Si  Si2       1.0  0.5047383308410645  0.7161586880683899  0.9896911978721619  1.0000
