data_image90
_chemical_formula_structural       CaTiO2CaSiO4
_chemical_formula_sum              "Ca2 Ti1 O6 Si1"
_cell_length_a       5.288547834804784
_cell_length_b       5.288005985596653
_cell_length_c       5.288187503814697
_cell_angle_alpha    60.17308578640211
_cell_angle_beta     60.11745315213713
_cell_angle_gamma    60.10925588789131

_space_group_name_H-M_alt    "P 1"
_space_group_IT_number       1

loop_
  _space_group_symop_operation_xyz
  'x, y, z'

loop_
  _atom_site_type_symbol
  _atom_site_label
  _atom_site_symmetry_multiplicity
  _atom_site_fract_x
  _atom_site_fract_y
  _atom_site_fract_z
  _atom_site_occupancy
  Ca  Ca1       1.0  0.9208268523216248  0.5714423656463622  0.7099906206130981  1.0000
  Ti  Ti1       1.0  0.669779896736145  0.3205856680870056  0.4585749506950378  1.0000
  O   O1        1.0  0.4083572030067444  0.5360009074211121  0.7647224068641663  1.0000
  O   O2        1.0  0.975909173488617  0.05820410326123237  0.6742997765541077  1.0000
  Ca  Ca2       1.0  0.4186453521251679  0.06920477747917175  0.20706558227539057  1.0000
  Si  Si1       1.0  0.16965180635452276  0.8203355073928832  0.9583312273025512  1.0000
  O   O3        1.0  0.4537583291530609  0.014406487345695496  0.7203980684280396  1.0000
  O   O4        1.0  0.9313524961471558  0.10484728962182999  0.15187281370162956  1.0000
  O   O5        1.0  0.8860122561454773  0.626246988773346  0.19622947275638572  1.0000
  O   O6        1.0  0.3635169565677643  0.5826659798622131  0.24264512956142423  1.0000
