data_image206
_chemical_formula_structural       CaSiO2SiTiO5
_chemical_formula_sum              "Ca1 Si2 O7 Ti1"
_cell_length_a       4.65121411170146
_cell_length_b       5.406183264651441
_cell_length_c       5.39948034286499
_cell_angle_alpha    102.23199761677213
_cell_angle_beta     96.61867438311832
_cell_angle_gamma    96.74519008433084

_space_group_name_H-M_alt    "P 1"
_space_group_IT_number       1

loop_
  _space_group_symop_operation_xyz
  'x, y, z'

loop_
  _atom_site_type_symbol
  _atom_site_label
  _atom_site_symmetry_multiplicity
  _atom_site_fract_x
  _atom_site_fract_y
  _atom_site_fract_z
  _atom_site_occupancy
  Ca  Ca1       1.0  0.7341694831848145  0.12759463489055634  0.6620704531669617  1.0000
  Si  Si1       1.0  0.3129328191280365  0.19236153364181519  0.16938678920269012  1.0000
  O   O1        1.0  0.9718953371047974  0.7453665137290955  0.38383999466896057  1.0000
  O   O2        1.0  0.4962852895259857  0.404675155878067  0.044031016528606394  1.0000
  Si  Si2       1.0  0.1553628146648407  0.6199022531509399  0.5964463949203491  1.0000
  Ti  Ti1       1.0  0.7340207099914552  0.7307341694831849  0.05791530758142471  1.0000
  O   O3        1.0  0.5316587686538696  0.9907255768775941  0.24337568879127502  1.0000
  O   O4        1.0  0.9364433288574219  0.5464388132095337  0.7985448837280273  1.0000
  O   O5        1.0  0.459624707698822  0.7908995747566223  0.7486976385116577  1.0000
  O   O6        1.0  0.23408406972885132  0.3355371356010437  0.4543747305870056  1.0000
  O   O7        1.0  0.008924408815801144  0.039659760892391205  0.9978822469711304  1.0000
