data_image443
_chemical_formula_structural       TiCaOCa2OTiCaO2Si2
_chemical_formula_sum              "Ti2 Ca4 O4 Si2"
_cell_length_a       4.101898671025952
_cell_length_b       4.170205715044959
_cell_length_c       11.943690299987793
_cell_angle_alpha    100.16602138283768
_cell_angle_beta     99.9815590480585
_cell_angle_gamma    90.08259334411285

_space_group_name_H-M_alt    "P 1"
_space_group_IT_number       1

loop_
  _space_group_symop_operation_xyz
  'x, y, z'

loop_
  _atom_site_type_symbol
  _atom_site_label
  _atom_site_symmetry_multiplicity
  _atom_site_fract_x
  _atom_site_fract_y
  _atom_site_fract_z
  _atom_site_occupancy
  Ti  Ti1       1.0  0.8322106003761292  0.0132951270788908  0.9583564400672913  1.0000
  Ca  Ca1       1.0  0.26384028792381287  0.4446336030960083  0.8205234408378601  1.0000
  O   O1        1.0  0.5425665378570557  0.7232846617698669  0.37906673550605774  1.0000
  Ca  Ca2       1.0  0.4059422016143799  0.586776614189148  0.10484018176794052  1.0000
  Ca  Ca3       1.0  0.6544682383537292  0.8349493741989136  0.6046509146690369  1.0000
  O   O2        1.0  0.7535240650177002  0.93425190448761  0.8004647493362427  1.0000
  Ti  Ti2       1.0  0.03844189643859863  0.7184578776359558  0.37000104784965515  1.0000
  Ca  Ca4       1.0  0.5377087593078613  0.21820242702960968  0.36944475769996643  1.0000
  O   O3        1.0  0.8377266526222229  0.5181014537811279  0.9673671722412109  1.0000
  O   O4        1.0  0.33702588081359863  0.017397509887814522  0.9663442373275757  1.0000
  Si  Si1       1.0  0.9534041881561279  0.13514907658100128  0.20174643397331238  1.0000
  Si  Si2       1.0  0.1268361210823059  0.3071497082710266  0.5479819178581238  1.0000
