data_image566
_chemical_formula_structural       SiTiO3CaO4SiCaO3Ti
_chemical_formula_sum              "Si2 Ti2 O10 Ca2"
_cell_length_a       5.512386220738854
_cell_length_b       5.5063586954796495
_cell_length_c       7.119718551635742
_cell_angle_alpha    104.14201846063368
_cell_angle_beta     104.2119258148671
_cell_angle_gamma    105.70481354655168

_space_group_name_H-M_alt    "P 1"
_space_group_IT_number       1

loop_
  _space_group_symop_operation_xyz
  'x, y, z'

loop_
  _atom_site_type_symbol
  _atom_site_label
  _atom_site_symmetry_multiplicity
  _atom_site_fract_x
  _atom_site_fract_y
  _atom_site_fract_z
  _atom_site_occupancy
  Si  Si1       1.0  0.8837857246398926  0.3371777832508087  0.04737170413136485  1.0000
  Ti  Ti1       1.0  0.20360200107097626  0.017158783972263336  0.797474205493927  1.0000
  O   O1        1.0  0.581386387348175  0.26754623651504517  0.8896130323410034  1.0000
  O   O2        1.0  0.4540056884288788  0.3945486843585968  0.3895873725414276  1.0000
  O   O3        1.0  0.5162854194641113  0.9034181833267212  0.4143253564834595  1.0000
  Ca  Ca1       1.0  0.5325453877449035  0.6883322596549987  0.04736775532364845  1.0000
  O   O4        1.0  0.09025974571704865  0.3299008905887604  0.9140435457229614  1.0000
  O   O5        1.0  0.3174315392971039  0.7041904330253601  0.6808228492736816  1.0000
  O   O6        1.0  0.2729182541370392  0.947864830493927  0.04743809625506404  1.0000
  O   O7        1.0  0.8261808753013611  0.7668070793151855  0.7051435708999634  1.0000
  Si  Si2       1.0  0.5236279964447021  0.6972819566726685  0.5473514199256897  1.0000
  Ca  Ca2       1.0  0.8750027418136597  0.34605079889297485  0.5478223562240601  1.0000
  O   O8        1.0  0.9533424973487854  0.6394882798194885  0.20574583113193512  1.0000
  O   O9        1.0  0.8909645676612854  0.1306513249874115  0.18063561618328094  1.0000
  O   O10       1.0  0.1344275176525116  0.08629006147384644  0.5476716756820679  1.0000
  Ti  Ti2       1.0  0.20358066260814667  0.0169399194419384  0.2976452708244324  1.0000
