data_image16
_chemical_formula_structural       TiO4TiSiO2
_chemical_formula_sum              "Ti2 O6 Si1"
_cell_length_a       4.340212831437985
_cell_length_b       4.816459521821905
_cell_length_c       4.8152594566345215
_cell_angle_alpha    120.04642104597546
_cell_angle_beta     90.00378642923074
_cell_angle_gamma    90.00227012716859

_space_group_name_H-M_alt    "P 1"
_space_group_IT_number       1

loop_
  _space_group_symop_operation_xyz
  'x, y, z'

loop_
  _atom_site_type_symbol
  _atom_site_label
  _atom_site_symmetry_multiplicity
  _atom_site_fract_x
  _atom_site_fract_y
  _atom_site_fract_z
  _atom_site_occupancy
  Ti  Ti1       1.0  0.7242050766944885  0.8006096482276917  0.9383492469787598  1.0000
  O   O1        1.0  0.4568493962287903  0.15446673333644867  0.2675475478172302  1.0000
  O   O2        1.0  0.4561379849910736  0.4721236824989319  0.9634914398193359  1.0000
  O   O3        1.0  0.4565048813819885  0.776475429534912  0.5852857828140259  1.0000
  O   O4        1.0  0.9914820790290833  0.775952160358429  0.267713338136673  1.0000
  Ti  Ti2       1.0  0.22401128709316254  0.13440237939357755  0.6057592034339905  1.0000
  Si  Si1       1.0  0.22413645684719086  0.4680866301059723  0.27245619893074036  1.0000
  O   O5        1.0  0.99202960729599  0.1546744704246521  0.9632477760314941  1.0000
  O   O6        1.0  0.9913680553436279  0.47189304232597346  0.5855848789215088  1.0000
