data_image20
_chemical_formula_structural       CaTiOSi
_chemical_formula_sum              "Ca1 Ti1 O1 Si1"
_cell_length_a       3.880421011119877
_cell_length_b       3.8845732217052964
_cell_length_c       5.872951507568359
_cell_angle_alpha    90.04917986563741
_cell_angle_beta     90.01219439180277
_cell_angle_gamma    120.02952339915326

_space_group_name_H-M_alt    "P 1"
_space_group_IT_number       1

loop_
  _space_group_symop_operation_xyz
  'x, y, z'

loop_
  _atom_site_type_symbol
  _atom_site_label
  _atom_site_symmetry_multiplicity
  _atom_site_fract_x
  _atom_site_fract_y
  _atom_site_fract_z
  _atom_site_occupancy
  Ca  Ca1       1.0  0.920964479446411  0.9457173347473145  0.4898433387279511  1.0000
  Ti  Ti1       1.0  0.2541524767875671  0.6119791269302367  0.9494130611419679  1.0000
  O   O1        1.0  0.2538047432899475  0.6124247312545776  0.6416035294532776  1.0000
  Si  Si1       1.0  0.587391197681427  0.2789966762065887  0.12419036775827409  1.0000
