data_image200
_chemical_formula_structural       O2CaTiOSiO3
_chemical_formula_sum              "O6 Ca1 Ti1 Si1"
_cell_length_a       4.991910729890728
_cell_length_b       5.0224607818945435
_cell_length_c       5.026508808135986
_cell_angle_alpha    119.99755765172364
_cell_angle_beta     89.98107604902356
_cell_angle_gamma    90.00148465559688

_space_group_name_H-M_alt    "P 1"
_space_group_IT_number       1

loop_
  _space_group_symop_operation_xyz
  'x, y, z'

loop_
  _atom_site_type_symbol
  _atom_site_label
  _atom_site_symmetry_multiplicity
  _atom_site_fract_x
  _atom_site_fract_y
  _atom_site_fract_z
  _atom_site_occupancy
  O   O1        1.0  0.20773440599441528  0.7672679424285889  0.18310262262821195  1.0000
  O   O2        1.0  0.7993001937866211  0.7669530510902405  0.43232831358909607  1.0000
  Ca  Ca1       1.0  0.5033366680145264  0.7923251390457153  0.8202342987060547  1.0000
  Ti  Ti1       1.0  0.0034874265547841787  0.12563982605934143  0.48756253719329834  1.0000
  O   O3        1.0  0.2079632431268692  0.42962589859962463  0.4328485429286957  1.0000
  Si  Si1       1.0  0.0035992648918181658  0.45862042903900146  0.15332350134849548  1.0000
  O   O4        1.0  0.7988846898078918  0.17995019257068634  0.182588130235672  1.0000
  O   O5        1.0  0.2079993337392807  0.17943646013736725  0.8449732065200806  1.0000
  O   O6        1.0  0.7991467118263245  0.42997443675994873  0.8452849984169006  1.0000
