data_image362
_chemical_formula_structural       OSiOTiSiCa
_chemical_formula_sum              "O2 Si2 Ti1 Ca1"
_cell_length_a       3.1676190328935077
_cell_length_b       3.0042378696715897
_cell_length_c       9.13736343383789
_cell_angle_alpha    96.07333171862456
_cell_angle_beta     99.47588590092303
_cell_angle_gamma    89.94553859995025

_space_group_name_H-M_alt    "P 1"
_space_group_IT_number       1

loop_
  _space_group_symop_operation_xyz
  'x, y, z'

loop_
  _atom_site_type_symbol
  _atom_site_label
  _atom_site_symmetry_multiplicity
  _atom_site_fract_x
  _atom_site_fract_y
  _atom_site_fract_z
  _atom_site_occupancy
  O   O1        1.0  0.328324556350708  0.20108287036418912  0.15111471712589264  1.0000
  Si  Si1       1.0  0.5293413400650024  0.845737874507904  0.5395464301109314  1.0000
  O   O2        1.0  0.18640859425067902  0.95221209526062  0.8585289120674133  1.0000
  Ti  Ti1       1.0  0.10810669511556625  0.3988651633262634  0.7060132026672363  1.0000
  Si  Si2       1.0  0.42959028482437134  0.2744113802909851  0.3429562449455261  1.0000
  Ca  Ca1       1.0  0.764217734336853  0.6287081837654114  0.01992708444595337  1.0000
