data_image161
_chemical_formula_structural       Ca2SiO2TiOSiO6
_chemical_formula_sum              "Ca2 Si2 O9 Ti1"
_cell_length_a       5.580032095192805
_cell_length_b       5.355163967205761
_cell_length_c       8.407604217529297
_cell_angle_alpha    81.43616083433345
_cell_angle_beta     86.59194979478967
_cell_angle_gamma    62.99137045832527

_space_group_name_H-M_alt    "P 1"
_space_group_IT_number       1

loop_
  _space_group_symop_operation_xyz
  'x, y, z'

loop_
  _atom_site_type_symbol
  _atom_site_label
  _atom_site_symmetry_multiplicity
  _atom_site_fract_x
  _atom_site_fract_y
  _atom_site_fract_z
  _atom_site_occupancy
  Ca  Ca1       1.0  0.4573019742965698  0.2891237139701843  0.018031155690550804  1.0000
  Ca  Ca2       1.0  0.1604200005531311  0.9131150841712952  0.2153899073600769  1.0000
  Si  Si1       1.0  0.35778141021728516  0.8506413698196412  0.7728251814842224  1.0000
  O   O1        1.0  0.6879765987396241  0.6678059101104736  0.74603271484375  1.0000
  O   O2        1.0  0.3190760314464569  0.9583350419998169  0.9515880942344666  1.0000
  Ti  Ti1       1.0  0.01665188930928703  0.5343840122222902  0.6352247595787048  1.0000
  O   O3        1.0  0.2144852876663208  0.1391216665506363  0.6465119123458862  1.0000
  Si  Si2       1.0  0.8189399242401123  0.5940343737602235  0.23815055191516876  1.0000
  O   O4        1.0  0.0763774812221527  0.7717686891555786  0.47774338722229004  1.0000
  O   O5        1.0  0.22831878066062924  0.6261142492294313  0.7792417407035828  1.0000
  O   O6        1.0  0.8012529015541077  0.5659465193748475  0.43995189666748047  1.0000
  O   O7        1.0  0.7632791996002197  0.9147099256515503  0.16942544281482697  1.0000
  O   O8        1.0  0.1118730828166008  0.36063247919082647  0.18931087851524353  1.0000
  O   O9        1.0  0.5681256055831908  0.5333256721496583  0.1919979453086853  1.0000
