data_image333
_chemical_formula_structural       CaOTiSi
_chemical_formula_sum              "Ca1 O1 Ti1 Si1"
_cell_length_a       3.1982591637594715
_cell_length_b       3.1991529192755275
_cell_length_c       7.2629008293151855
_cell_angle_alpha    77.24193989922298
_cell_angle_beta     77.26451385417134
_cell_angle_gamma    59.99807603240257

_space_group_name_H-M_alt    "P 1"
_space_group_IT_number       1

loop_
  _space_group_symop_operation_xyz
  'x, y, z'

loop_
  _atom_site_type_symbol
  _atom_site_label
  _atom_site_symmetry_multiplicity
  _atom_site_fract_x
  _atom_site_fract_y
  _atom_site_fract_z
  _atom_site_occupancy
  Ca  Ca1       1.0  0.45458307862281794  0.9728015065193176  0.4631701707839966  1.0000
  O   O1        1.0  0.19466106593608856  0.7122589945793152  0.2431311011314392  1.0000
  Ti  Ti1       1.0  0.9177652597427368  0.4352377653121949  0.07308550179004669  1.0000
  Si  Si1       1.0  0.6767712831497192  0.19379523396492007  0.7979203462600708  1.0000
