data_image201
_chemical_formula_structural       O2CaSiTiO5SiO
_chemical_formula_sum              "O8 Ca1 Si2 Ti1"
_cell_length_a       5.644134171413611
_cell_length_b       5.644963391476206
_cell_length_c       5.644231796264648
_cell_angle_alpha    106.45766948391466
_cell_angle_beta     106.53845112243766
_cell_angle_gamma    115.47822643400565

_space_group_name_H-M_alt    "P 1"
_space_group_IT_number       1

loop_
  _space_group_symop_operation_xyz
  'x, y, z'

loop_
  _atom_site_type_symbol
  _atom_site_label
  _atom_site_symmetry_multiplicity
  _atom_site_fract_x
  _atom_site_fract_y
  _atom_site_fract_z
  _atom_site_occupancy
  O   O1        1.0  0.5494140386581422  0.6374624967575074  0.7477975487709045  1.0000
  O   O2        1.0  0.4731217920780182  0.6894128322601318  0.27488166093826294  1.0000
  Ca  Ca1       1.0  0.6112986207008362  0.02663339488208294  0.0764007642865181  1.0000
  Si  Si1       1.0  0.11085811257362366  0.5263509154319763  0.07626157999038696  1.0000
  Ti  Ti1       1.0  0.8613210320472717  0.7754340767860414  0.5767701268196106  1.0000
  O   O3        1.0  0.9479288458824158  0.16413499414920807  0.8785184621810913  1.0000
  O   O4        1.0  0.548815906047821  0.2917608320713043  0.4038020968437195  1.0000
  O   O5        1.0  0.07564733922481535  0.6900498270988464  0.8779129981994629  1.0000
  O   O6        1.0  0.9479954242706299  0.5619038939476013  0.275606632232666  1.0000
  O   O7        1.0  0.3451230525970459  0.08834599703550339  0.7486027479171753  1.0000
  Si  Si2       1.0  0.3614835739135742  0.2765863239765168  0.5767171382904053  1.0000
  O   O8        1.0  5.3283292800197504e-05  0.08879112452268602  0.40455594658851624  1.0000
