data_image563
_chemical_formula_structural       O2TiCaOSiO3SiOCa
_chemical_formula_sum              "O7 Ti1 Ca2 Si2"
_cell_length_a       4.791830176641281
_cell_length_b       6.774579296643142
_cell_length_c       6.8186869621276855
_cell_angle_alpha    119.17528627625622
_cell_angle_beta     104.8643223964102
_cell_angle_gamma    94.7866740998018

_space_group_name_H-M_alt    "P 1"
_space_group_IT_number       1

loop_
  _space_group_symop_operation_xyz
  'x, y, z'

loop_
  _atom_site_type_symbol
  _atom_site_label
  _atom_site_symmetry_multiplicity
  _atom_site_fract_x
  _atom_site_fract_y
  _atom_site_fract_z
  _atom_site_occupancy
  O   O1        1.0  0.853254497051239  0.37690991163253784  0.38642531633377075  1.0000
  O   O2        1.0  0.375266432762146  0.024967670440673828  0.19759218394756317  1.0000
  Ti  Ti1       1.0  0.20712432265281677  0.6025863289833069  0.6156649589538574  1.0000
  Ca  Ca1       1.0  0.36401817202568054  0.08277348428964613  0.5858678221702576  1.0000
  O   O3        1.0  0.4343492388725281  0.4845080375671386  0.7623786330223083  1.0000
  Si  Si1       1.0  0.7382080554962158  0.09312897920608519  0.24346099793910975  1.0000
  O   O4        1.0  0.3508855402469635  0.6922592520713806  0.44993114471435536  1.0000
  O   O5        1.0  0.8681790232658386  0.9691781997680663  0.38413897156715376  1.0000
  O   O6        1.0  0.2489437758922577  0.2025266587734222  0.9292811155319213  1.0000
  Si  Si2       1.0  0.13206534087657928  0.9758026599884033  0.9361791014671325  1.0000
  O   O7        1.0  0.8093252778053284  0.9905458688735961  0.987818419933319  1.0000
  Ca  Ca2       1.0  0.5610160231590271  0.5648664832115173  0.16898827254772186  1.0000
