data_image119
_chemical_formula_structural       CaSiTiSiOSi2O6CaO6
_chemical_formula_sum              "Ca2 Si4 Ti1 O13"
_cell_length_a       5.0347999579178335
_cell_length_b       5.574521718846573
_cell_length_c       12.69512939453125
_cell_angle_alpha    110.72821269343
_cell_angle_beta     101.69940711621098
_cell_angle_gamma    97.78026981867642

_space_group_name_H-M_alt    "P 1"
_space_group_IT_number       1

loop_
  _space_group_symop_operation_xyz
  'x, y, z'

loop_
  _atom_site_type_symbol
  _atom_site_label
  _atom_site_symmetry_multiplicity
  _atom_site_fract_x
  _atom_site_fract_y
  _atom_site_fract_z
  _atom_site_occupancy
  Ca  Ca1       1.0  0.7449218034744264  0.85147762298584  0.13492526113986972  1.0000
  Si  Si1       1.0  0.7750567197799683  0.030621584504842758  0.897887647151947  1.0000
  Ti  Ti1       1.0  0.3363431990146637  0.16657842695713043  0.4228004515171051  1.0000
  Si  Si2       1.0  0.8396968245506287  0.804783821105957  0.3927423357963562  1.0000
  O   O1        1.0  0.426591694355011  0.3540429472923279  0.33893850445747375  1.0000
  Si  Si3       1.0  0.2506750226020813  0.10668934136629105  0.7783511877059937  1.0000
  Si  Si4       1.0  0.3613542318344116  0.5618206858634949  0.696938157081604  1.0000
  O   O2        1.0  0.2377740889787674  0.7769181132316589  0.1342732161283493  1.0000
  O   O3        1.0  0.18078583478927612  0.32054948806762695  0.7186423540115356  1.0000
  O   O4        1.0  0.7917956113815308  0.6324473023414612  0.25611957907676697  1.0000
  O   O5        1.0  0.203475221991539  0.7960726618766785  0.6848672032356262  1.0000
  O   O6        1.0  0.04079072177410126  0.16453275084495544  0.31623512506484985  1.0000
  O   O7        1.0  0.05678395554423332  0.09576470404863359  0.8604298233985901  1.0000
  Ca  Ca2       1.0  0.15802812576293945  0.44157013297080994  0.19603601098060608  1.0000
  O   O8        1.0  0.5623413324356079  0.9285119175910951  0.4100798964500427  1.0000
  O   O9        1.0  0.618925929069519  0.71885484457016  0.8170580267906189  1.0000
  O   O10       1.0  0.29424184560775757  0.6008985638618469  0.05127152428030968  1.0000
  O   O11       1.0  0.4415382444858551  0.42080846428871155  0.5780074596405029  1.0000
  O   O12       1.0  0.5658171772956848  0.20256522297859195  0.8581263422966003  1.0000
  O   O13       1.0  0.845304012298584  0.09935887157917023  0.03644750267267227  1.0000
