data_image331
_chemical_formula_structural       SiOTiCaO2SiO5
_chemical_formula_sum              "Si2 O8 Ti1 Ca1"
_cell_length_a       5.643639589871571
_cell_length_b       5.64426804399337
_cell_length_c       5.656110763549805
_cell_angle_alpha    106.51430710370488
_cell_angle_beta     106.53201640079871
_cell_angle_gamma    115.35171878340886

_space_group_name_H-M_alt    "P 1"
_space_group_IT_number       1

loop_
  _space_group_symop_operation_xyz
  'x, y, z'

loop_
  _atom_site_type_symbol
  _atom_site_label
  _atom_site_symmetry_multiplicity
  _atom_site_fract_x
  _atom_site_fract_y
  _atom_site_fract_z
  _atom_site_occupancy
  Si  Si1       1.0  0.5660858154296875  0.42022234201431274  0.6308854222297668  1.0000
  O   O1        1.0  0.6022050976753235  0.25679585337638855  0.8296307921409607  1.0000
  Ti  Ti1       1.0  0.816127359867096  0.171443909406662  0.13099493086338043  1.0000
  Ca  Ca1       1.0  0.06556040048599243  0.9199747443199158  0.6306458115577698  1.0000
  O   O2        1.0  0.6774040460586548  0.8571523427963257  0.30346235632896423  1.0000
  O   O3        1.0  0.12883593142032623  0.3089667856693268  0.958170473575592  1.0000
  Si  Si2       1.0  0.3150986433029175  0.6696314811706543  0.13066710531711578  1.0000
  O   O4        1.0  0.727840006351471  0.7815428376197815  0.8290084004402161  1.0000
  O   O5        1.0  0.32891327142715454  0.856560230255127  0.9579906463623047  1.0000
  O   O6        1.0  0.7286418080329895  0.3840433955192566  0.43148890137672424  1.0000
  O   O7        1.0  0.20434455573558807  0.25826066732406616  0.43181511759757996  1.0000
  O   O8        1.0  0.12924161553382874  0.6557968854904175  0.3041057884693146  1.0000
