data_image306
_chemical_formula_structural       OTiCaTiSi2
_chemical_formula_sum              "O1 Ti2 Ca1 Si2"
_cell_length_a       3.1741461763197436
_cell_length_b       3.18010759356464
_cell_length_c       10.618517875671387
_cell_angle_alpha    90.00024156108411
_cell_angle_beta     89.9986091458719
_cell_angle_gamma    119.98870670854556

_space_group_name_H-M_alt    "P 1"
_space_group_IT_number       1

loop_
  _space_group_symop_operation_xyz
  'x, y, z'

loop_
  _atom_site_type_symbol
  _atom_site_label
  _atom_site_symmetry_multiplicity
  _atom_site_fract_x
  _atom_site_fract_y
  _atom_site_fract_z
  _atom_site_occupancy
  O   O1        1.0  0.12530077993869781  0.820552408695221  0.7253451347351074  1.0000
  Ti  Ti1       1.0  0.45885446667671204  0.4871695339679718  0.8349050879478455  1.0000
  Ca  Ca1       1.0  0.7924945950508118  0.15458090603351593  0.575394868850708  1.0000
  Ti  Ti2       1.0  0.45961982011795044  0.48745274543762207  0.17765647172927856  1.0000
  Si  Si1       1.0  0.12606973946094513  0.8219863772392273  0.35149890184402466  1.0000
  Si  Si2       1.0  0.7922738194465637  0.15435245633125305  0.010095950216054916  1.0000
