data_image409
_chemical_formula_structural       OSiO2SiO2SiO2CaO
_chemical_formula_sum              "O8 Si3 Ca1"
_cell_length_a       4.851747891402289
_cell_length_b       4.848045204655365
_cell_length_c       6.86756706237793
_cell_angle_alpha    89.22975520411433
_cell_angle_beta     89.15413134717593
_cell_angle_gamma    64.7866526758917

_space_group_name_H-M_alt    "P 1"
_space_group_IT_number       1

loop_
  _space_group_symop_operation_xyz
  'x, y, z'

loop_
  _atom_site_type_symbol
  _atom_site_label
  _atom_site_symmetry_multiplicity
  _atom_site_fract_x
  _atom_site_fract_y
  _atom_site_fract_z
  _atom_site_occupancy
  O   O1        1.0  0.5318573713302612  0.1815200001001358  0.4151940643787384  1.0000
  Si  Si1       1.0  0.3236333131790161  0.4509175121784211  0.6004458069801331  1.0000
  O   O2        1.0  0.054238878190517356  0.6601248383522035  0.4152669608592987  1.0000
  O   O3        1.0  0.5342015624046326  0.661902666091919  0.5489407777786255  1.0000
  Si  Si2       1.0  0.9635199308395386  0.09041886031627655  0.8089582324028015  1.0000
  O   O4        1.0  0.11273052543401721  0.23976528644561768  0.6524850130081177  1.0000
  O   O5        1.0  0.6101005077362059  0.7366942167282104  0.1739269644021988  1.0000
  Si  Si3       1.0  0.6830550432205201  0.8100912570953369  0.3910960257053375  1.0000
  O   O6        1.0  0.03749967738986015  0.16499030590057373  0.025676753371953964  1.0000
  O   O7        1.0  0.11457498371601108  0.7196976542472839  0.786048173904419  1.0000
  Ca  Ca1       1.0  0.32339406013488775  0.450846791267395  0.10074135661125183  1.0000
  O   O8        1.0  0.5923566818237305  0.24194343388080594  0.7856661677360535  1.0000
