data_image232
_chemical_formula_structural       TiOCaO3SiO2
_chemical_formula_sum              "Ti1 O6 Ca1 Si1"
_cell_length_a       5.007119908058394
_cell_length_b       5.024463684966328
_cell_length_c       5.0272908210754395
_cell_angle_alpha    119.87890335657895
_cell_angle_beta     89.8867033319436
_cell_angle_gamma    89.93004769576298

_space_group_name_H-M_alt    "P 1"
_space_group_IT_number       1

loop_
  _space_group_symop_operation_xyz
  'x, y, z'

loop_
  _atom_site_type_symbol
  _atom_site_label
  _atom_site_symmetry_multiplicity
  _atom_site_fract_x
  _atom_site_fract_y
  _atom_site_fract_z
  _atom_site_occupancy
  Ti  Ti1       1.0  0.7231016755104065  0.7736800312995911  0.39567142724990845  1.0000
  O   O1        1.0  0.5196530222892761  0.1324550956487656  0.4507252275943756  1.0000
  Ca  Ca1       1.0  0.2232210487127304  0.10718033462762833  0.06233952194452286  1.0000
  O   O2        1.0  0.9272040724754333  0.13176694512367249  0.7003039717674255  1.0000
  O   O3        1.0  0.9267941117286682  0.7194632887840272  0.03714708611369137  1.0000
  O   O4        1.0  0.519515335559845  0.4699476361274719  0.03753349184989929  1.0000
  Si  Si1       1.0  0.7234496474266052  0.44064137339591986  0.7293093800544739  1.0000
  O   O5        1.0  0.5192583203315735  0.7191585302352906  0.6998316645622253  1.0000
  O   O6        1.0  0.9273396730422974  0.4685141444206238  0.4499150812625885  1.0000
