data_image390
_chemical_formula_structural       TiCa2TiSiOCaOSiO7SiO3
_chemical_formula_sum              "Ti2 Ca3 Si3 O12"
_cell_length_a       5.928593795836908
_cell_length_b       7.961088456370905
_cell_length_c       7.948169231414795
_cell_angle_alpha    93.60380199328054
_cell_angle_beta     71.77963918975047
_cell_angle_gamma    71.56728814380064

_space_group_name_H-M_alt    "P 1"
_space_group_IT_number       1

loop_
  _space_group_symop_operation_xyz
  'x, y, z'

loop_
  _atom_site_type_symbol
  _atom_site_label
  _atom_site_symmetry_multiplicity
  _atom_site_fract_x
  _atom_site_fract_y
  _atom_site_fract_z
  _atom_site_occupancy
  Ti  Ti1       1.0  0.006616475060582161  0.3167756497859955  0.7452536821365356  1.0000
  Ca  Ca1       1.0  0.47792887687683105  0.4861450791358948  0.08205382525920868  1.0000
  Ca  Ca2       1.0  0.5057156085968018  0.9808821082115173  0.08773253858089447  1.0000
  Ti  Ti2       1.0  0.5076847672462463  0.4775409698486328  0.5836283564567566  1.0000
  Si  Si1       1.0  0.007352703250944614  0.8109078407287598  0.2580061256885529  1.0000
  O   O1        1.0  0.29926687479019165  0.726049542427063  0.6426736116409302  1.0000
  Ca  Ca3       1.0  0.5350982546806334  0.9812137484550476  0.5822831988334656  1.0000
  O   O2        1.0  0.2832307815551758  0.7993552088737488  0.1295517683029175  1.0000
  Si  Si2       1.0  0.03256760537624359  0.8841840624809265  0.658890426158905  1.0000
  O   O3        1.0  0.7155855894088745  0.4253256022930145  0.3344157040119171  1.0000
  O   O4        1.0  0.2624208629131317  0.2705431282520294  0.1477998048067093  1.0000
  O   O5        1.0  0.018647313117980957  0.6030231714248657  0.21378391981124878  1.0000
  O   O6        1.0  0.731781542301178  0.9405258297920227  0.26922479271888733  1.0000
  O   O7        1.0  0.9939676523208618  0.8490192294120789  0.467053085565567  1.0000
  O   O8        1.0  0.1028721034526825  0.0669463574886322  0.6771547198295593  1.0000
  O   O9        1.0  0.6824657917022705  0.43080762028694153  0.7452568411827087  1.0000
  Si  Si3       1.0  0.9825676679611206  0.41154310107231135  0.17596770823001864  1.0000
  O   O10       1.0  0.33059409260749817  0.3167725801467895  0.6273000240325928  1.0000
  O   O11       1.0  0.9124821424484253  0.39430546760559076  0.9936528205871582  1.0000
  O   O12       1.0  0.7517293095588684  0.9148371815681458  0.7987635731697083  1.0000
