data_image446
_chemical_formula_structural       TiCaTiSiOSiCaO
_chemical_formula_sum              "Ti2 Ca2 Si2 O2"
_cell_length_a       4.056681384084094
_cell_length_b       4.052785602063993
_cell_length_c       8.059477806091309
_cell_angle_alpha    90.05148164537516
_cell_angle_beta     90.11276893425666
_cell_angle_gamma    90.22806251922938

_space_group_name_H-M_alt    "P 1"
_space_group_IT_number       1

loop_
  _space_group_symop_operation_xyz
  'x, y, z'

loop_
  _atom_site_type_symbol
  _atom_site_label
  _atom_site_symmetry_multiplicity
  _atom_site_fract_x
  _atom_site_fract_y
  _atom_site_fract_z
  _atom_site_occupancy
  Ti  Ti1       1.0  0.1368732750415802  0.08592289686203003  0.09256655722856522  1.0000
  Ca  Ca1       1.0  0.13682328164577484  0.5857259631156921  0.44051995873451233  1.0000
  Ti  Ti2       1.0  0.6363440155982971  0.5861453413963318  0.09235282242298126  1.0000
  Si  Si1       1.0  0.13676825165748596  0.5858466029167175  0.842278778553009  1.0000
  O   O1        1.0  0.6363129019737244  0.08554979413747787  0.03222561627626419  1.0000
  Si  Si2       1.0  0.6366832852363586  0.08582763373851776  0.3430708646774292  1.0000
  Ca  Ca2       1.0  0.6369457840919495  0.08573928475379944  0.7447797656059265  1.0000
  O   O2        1.0  0.13717427849769592  0.5862714052200316  0.1541680544614792  1.0000
