data_image508
_chemical_formula_structural       SiCa2OTiO4
_chemical_formula_sum              "Si1 Ca2 O5 Ti1"
_cell_length_a       5.394269991574328
_cell_length_b       5.391501807940703
_cell_length_c       5.24753999710083
_cell_angle_alpha    116.75209674281855
_cell_angle_beta     116.90424677677404
_cell_angle_gamma    96.60033566057803

_space_group_name_H-M_alt    "P 1"
_space_group_IT_number       1

loop_
  _space_group_symop_operation_xyz
  'x, y, z'

loop_
  _atom_site_type_symbol
  _atom_site_label
  _atom_site_symmetry_multiplicity
  _atom_site_fract_x
  _atom_site_fract_y
  _atom_site_fract_z
  _atom_site_occupancy
  Si  Si1       1.0  0.9989614486694336  0.7127571702003479  0.8964030742645263  1.0000
  Ca  Ca1       1.0  0.27234035730361933  0.4403094053268432  0.3967409133911133  1.0000
  Ca  Ca2       1.0  0.7719163298606873  0.9394434690475464  0.3956155478954315  1.0000
  O   O1        1.0  0.7939369082450866  0.9170113205909728  0.8954172730445861  1.0000
  Ti  Ti1       1.0  0.5486817955970764  0.1642739474773407  0.8972114324569702  1.0000
  O   O2        1.0  0.7177000641822814  0.47391739487648005  0.37379354238510126  1.0000
  O   O3        1.0  0.23850761353969568  0.993387222290039  0.41861149668693537  1.0000
  O   O4        1.0  0.29561385512351984  0.8174424171447753  0.8970203399658203  1.0000
  O   O5        1.0  0.8966769576072693  0.41685292124748224  0.8955566883087158  1.0000
