data_image439
_chemical_formula_structural       TiSi2O
_chemical_formula_sum              "Ti1 Si2 O1"
_cell_length_a       3.128960076739505
_cell_length_b       3.125612643775891
_cell_length_c       7.642309665679932
_cell_angle_alpha    78.30647924899543
_cell_angle_beta     78.29335190965699
_cell_angle_gamma    60.002804716866976

_space_group_name_H-M_alt    "P 1"
_space_group_IT_number       1

loop_
  _space_group_symop_operation_xyz
  'x, y, z'

loop_
  _atom_site_type_symbol
  _atom_site_label
  _atom_site_symmetry_multiplicity
  _atom_site_fract_x
  _atom_site_fract_y
  _atom_site_fract_z
  _atom_site_occupancy
  Ti  Ti1       1.0  0.16200296580791473  0.7765663266181946  0.4672076106071472  1.0000
  Si  Si1       1.0  0.7426074147224425  0.35503828525543213  0.7276111841201782  1.0000
  Si  Si2       1.0  0.008677963167428963  0.6216097474098206  0.931129515171051  1.0000
  O   O1        1.0  0.5273047685623169  0.1423453539609909  0.36861202120780945  1.0000
