data_image380
_chemical_formula_structural       CaSiOSi
_chemical_formula_sum              "Ca1 Si2 O1"
_cell_length_a       3.8079333091470495
_cell_length_b       3.809797764041949
_cell_length_c       5.6534247398376465
_cell_angle_alpha    89.99938778744936
_cell_angle_beta     89.95070902913055
_cell_angle_gamma    120.10255308124697

_space_group_name_H-M_alt    "P 1"
_space_group_IT_number       1

loop_
  _space_group_symop_operation_xyz
  'x, y, z'

loop_
  _atom_site_type_symbol
  _atom_site_label
  _atom_site_symmetry_multiplicity
  _atom_site_fract_x
  _atom_site_fract_y
  _atom_site_fract_z
  _atom_site_occupancy
  Ca  Ca1       1.0  0.9948318600654603  0.04225743189454079  0.2320327460765839  1.0000
  Si  Si1       1.0  0.32794854044914246  0.7102004885673523  0.8275007009506226  1.0000
  O   O1        1.0  0.6610223650932312  0.37586843967437744  0.378050833940506  1.0000
  Si  Si2       1.0  0.6613744497299194  0.3759009540081025  0.6751425266265869  1.0000
