data_image35
_chemical_formula_structural       OCaSiO2TiO3SiO2
_chemical_formula_sum              "O8 Ca1 Si2 Ti1"
_cell_length_a       5.342543248369705
_cell_length_b       5.343569331796448
_cell_length_c       6.520359992980957
_cell_angle_alpha    90.00807578845635
_cell_angle_beta     89.98769450379461
_cell_angle_gamma    119.98770808727937

_space_group_name_H-M_alt    "P 1"
_space_group_IT_number       1

loop_
  _space_group_symop_operation_xyz
  'x, y, z'

loop_
  _atom_site_type_symbol
  _atom_site_label
  _atom_site_symmetry_multiplicity
  _atom_site_fract_x
  _atom_site_fract_y
  _atom_site_fract_z
  _atom_site_occupancy
  O   O1        1.0  0.18774639070034027  0.6805111765861511  0.620517909526825  1.0000
  Ca  Ca1       1.0  0.8542513847351074  0.013716297224164007  0.6284583806991577  1.0000
  Si  Si1       1.0  0.5215098261833191  0.34731996059417725  0.3902767598628997  1.0000
  O   O2        1.0  0.1842040717601776  0.17887380719184875  0.31383323669433594  1.0000
  O   O3        1.0  0.018996113911271095  0.8493927717208862  0.9433640241622924  1.0000
  Ti  Ti1       1.0  0.8543520569801331  0.014091048389673231  0.12834323942661285  1.0000
  O   O4        1.0  0.018857046961784363  0.34339430928230286  0.9433103799819945  1.0000
  O   O5        1.0  0.6898638606071472  0.17823882400989532  0.313836008310318  1.0000
  O   O6        1.0  0.5245617032051086  0.8489112257957458  0.9432220458984374  1.0000
  Si  Si2       1.0  0.1873227059841156  0.6803202629089355  0.867153763771057  1.0000
  O   O7        1.0  0.5212351083755493  0.34692877531051636  0.6373468637466431  1.0000
  O   O8        1.0  0.6898288726806641  0.6842516660690308  0.31377360224723816  1.0000
