data_image343
_chemical_formula_structural       Ca2TiO6Si
_chemical_formula_sum              "Ca2 Ti1 O6 Si1"
_cell_length_a       5.2676231524898744
_cell_length_b       5.26859387791471
_cell_length_c       5.274445533752441
_cell_angle_alpha    90.31235387480966
_cell_angle_beta     119.83662689088608
_cell_angle_gamma    119.88909741115167

_space_group_name_H-M_alt    "P 1"
_space_group_IT_number       1

loop_
  _space_group_symop_operation_xyz
  'x, y, z'

loop_
  _atom_site_type_symbol
  _atom_site_label
  _atom_site_symmetry_multiplicity
  _atom_site_fract_x
  _atom_site_fract_y
  _atom_site_fract_z
  _atom_site_occupancy
  Ca  Ca1       1.0  0.46961966156959534  0.3875721096992492  0.6639149785041809  1.0000
  Ca  Ca2       1.0  0.4622546434402466  0.8854811787605286  0.15431447327136985  1.0000
  Ti  Ti1       1.0  0.9658750891685486  0.6365516185760498  0.4093979895114898  1.0000
  O   O1        1.0  0.9672878384590149  0.4034988582134247  0.6979205608367919  1.0000
  O   O2        1.0  0.48766803741455067  0.9237474799156188  0.6976877450942993  1.0000
  O   O3        1.0  0.018804527819156647  0.3753755092620849  0.2014932334423065  1.0000
  O   O4        1.0  0.913027286529541  0.8977289795875548  0.6169318556785582  1.0000
  O   O5        1.0  0.9649779796600342  0.869865357875824  0.12033496052026747  1.0000
  O   O6        1.0  0.4444721043109894  0.3491232097148895  0.12082835286855696  1.0000
  Si  Si1       1.0  0.9658899307250977  0.13654743134975433  0.9091120958328246  1.0000
