data_image372
_chemical_formula_structural       CaSiTiCaO6
_chemical_formula_sum              "Ca2 Si1 Ti1 O6"
_cell_length_a       5.265384900222438
_cell_length_b       5.266717568532149
_cell_length_c       5.304569244384766
_cell_angle_alpha    119.69648468473126
_cell_angle_beta     119.77244894019745
_cell_angle_gamma    90.01728908863608

_space_group_name_H-M_alt    "P 1"
_space_group_IT_number       1

loop_
  _space_group_symop_operation_xyz
  'x, y, z'

loop_
  _atom_site_type_symbol
  _atom_site_label
  _atom_site_symmetry_multiplicity
  _atom_site_fract_x
  _atom_site_fract_y
  _atom_site_fract_z
  _atom_site_occupancy
  Ca  Ca1       1.0  0.7864711880683899  0.4228987395763398  0.729626476764679  1.0000
  Si  Si1       1.0  0.03652821108698845  0.1730395555496216  0.22982913255691528  1.0000
  Ti  Ti1       1.0  0.5361408591270447  0.672782599925995  0.23010951280593872  1.0000
  Ca  Ca2       1.0  0.2860966622829437  0.9231777787208557  0.7303507328033447  1.0000
  O   O1        1.0  0.31181949377059937  0.3743661642074585  0.2298654168844223  1.0000
  O   O2        1.0  0.27536410093307495  0.41174161434173584  0.7090944647789001  1.0000
  O   O3        1.0  0.8348532319068909  0.44893309473991394  0.23093758523464195  1.0000
  O   O4        1.0  0.7968941330909729  0.9341605305671692  0.7514293789863586  1.0000
  O   O5        1.0  0.7604843974113464  0.9711498618125916  0.23021657764911652  1.0000
  O   O6        1.0  0.2377007156610489  0.8968392014503479  0.22946760058403015  1.0000
