data_image160
_chemical_formula_structural       OCaOTiOSiO2CaO
_chemical_formula_sum              "O6 Ca2 Ti1 Si1"
_cell_length_a       5.850750000868427
_cell_length_b       5.760083142490457
_cell_length_c       5.7751994132995605
_cell_angle_alpha    68.76384231487184
_cell_angle_beta     55.43304020612161
_cell_angle_gamma    72.71315523674065

_space_group_name_H-M_alt    "P 1"
_space_group_IT_number       1

loop_
  _space_group_symop_operation_xyz
  'x, y, z'

loop_
  _atom_site_type_symbol
  _atom_site_label
  _atom_site_symmetry_multiplicity
  _atom_site_fract_x
  _atom_site_fract_y
  _atom_site_fract_z
  _atom_site_occupancy
  O   O1        1.0  0.2101815938949585  0.5520125031471252  0.5111278295516968  1.0000
  Ca  Ca1       1.0  0.3147167265415191  0.768449366092682  0.7228227853775024  1.0000
  O   O2        1.0  0.54789137840271  0.8837747573852539  0.8798277378082277  1.0000
  Ti  Ti1       1.0  0.0637837201356888  0.3607064187526703  0.4620745480060578  1.0000
  O   O3        1.0  0.6303104162216187  0.40136903524398804  0.7336679697036743  1.0000
  Si  Si1       1.0  0.6138028502464294  0.10576646029949188  0.9357477426528932  1.0000
  O   O4        1.0  0.41361019015312195  0.12631040811538696  0.27710431814193726  1.0000
  O   O5        1.0  0.021014288067817688  0.5091627836227417  0.15602274239063263  1.0000
  Ca  Ca2       1.0  0.6858717799186707  0.4881958067417145  0.0972527340054512  1.0000
  O   O6        1.0  0.9422702789306641  0.07266972213983536  0.847981095314026  1.0000
