data_image172
_chemical_formula_structural       OTiOSiOSiO2
_chemical_formula_sum              "O5 Ti1 Si2"
_cell_length_a       5.530028642675254
_cell_length_b       5.504053499573581
_cell_length_c       7.212735176086426
_cell_angle_alpha    77.6716143590516
_cell_angle_beta     66.92720667573523
_cell_angle_gamma    59.52634189127803

_space_group_name_H-M_alt    "P 1"
_space_group_IT_number       1

loop_
  _space_group_symop_operation_xyz
  'x, y, z'

loop_
  _atom_site_type_symbol
  _atom_site_label
  _atom_site_symmetry_multiplicity
  _atom_site_fract_x
  _atom_site_fract_y
  _atom_site_fract_z
  _atom_site_occupancy
  O   O1        1.0  0.1202249526977539  0.285619854927063  0.44284829497337347  1.0000
  Ti  Ti1       1.0  0.2907600104808808  0.9428234696388245  0.3363253176212311  1.0000
  O   O2        1.0  0.6893766522407531  0.6090213060379028  0.7564985156059265  1.0000
  Si  Si1       1.0  0.3415621817111969  0.8162968158721924  0.9025320410728456  1.0000
  O   O3        1.0  0.38327401876449596  0.9650102853775023  0.060577433556318255  1.0000
  Si  Si2       1.0  0.8686173558235168  0.6025254130363464  0.510280430316925  1.0000
  O   O4        1.0  0.6310836672782897  0.7117058634757996  0.392845243215561  1.0000
  O   O5        1.0  0.02471517398953441  0.807005226612091  0.4504541456699372  1.0000
