data_image207
_chemical_formula_structural       TiCaOSi2O4TiO2
_chemical_formula_sum              "Ti2 Ca1 O7 Si2"
_cell_length_a       5.251220999177219
_cell_length_b       5.248678916075415
_cell_length_c       8.87855339050293
_cell_angle_alpha    72.76251048953974
_cell_angle_beta     72.74365215868639
_cell_angle_gamma    59.83632577407147

_space_group_name_H-M_alt    "P 1"
_space_group_IT_number       1

loop_
  _space_group_symop_operation_xyz
  'x, y, z'

loop_
  _atom_site_type_symbol
  _atom_site_label
  _atom_site_symmetry_multiplicity
  _atom_site_fract_x
  _atom_site_fract_y
  _atom_site_fract_z
  _atom_site_occupancy
  Ti  Ti1       1.0  0.870153546333313  0.38305673003196716  0.7074066400527954  1.0000
  Ca  Ca1       1.0  0.29918086528778076  0.8124798536300659  0.4212305247783661  1.0000
  O   O1        1.0  0.7990368008613586  0.31160077452659607  0.921197235584259  1.0000
  Si  Si1       1.0  0.5578737258911133  0.07034263014793396  0.6450693011283875  1.0000
  Si  Si2       1.0  0.04231508076190947  0.5536410212516785  0.19526591897010803  1.0000
  O   O2        1.0  0.8531681895256042  0.7762319445610046  0.6064693331718445  1.0000
  O   O3        1.0  0.33512899279594416  0.2570152282714844  0.23584243655204773  1.0000
  O   O4        1.0  0.7451196908950806  0.5180386900901794  0.23620207607746124  1.0000
  O   O5        1.0  0.5960258841514587  0.36559745669364924  0.6058007478713989  1.0000
  Ti  Ti2       1.0  0.7290635704994202  0.2409548312425613  0.13543543219566345  1.0000
  O   O6        1.0  0.0060260323807597325  0.8476874232292175  0.23621219396591187  1.0000
  O   O7        1.0  0.26309043169021606  0.10814841836690901  0.6054652333259583  1.0000
