data_image239
_chemical_formula_structural       Ca2SiCaOSiCaOTiOTiO9
_chemical_formula_sum              "Ca4 Si2 O12 Ti2"
_cell_length_a       5.275435057500357
_cell_length_b       5.277396006487475
_cell_length_c       9.15473461151123
_cell_angle_alpha    73.29798266439404
_cell_angle_beta     73.33496204836288
_cell_angle_gamma    60.136723437223594

_space_group_name_H-M_alt    "P 1"
_space_group_IT_number       1

loop_
  _space_group_symop_operation_xyz
  'x, y, z'

loop_
  _atom_site_type_symbol
  _atom_site_label
  _atom_site_symmetry_multiplicity
  _atom_site_fract_x
  _atom_site_fract_y
  _atom_site_fract_z
  _atom_site_occupancy
  Ca  Ca1       1.0  0.987475574016571  0.11624727398157118  0.08556479215621948  1.0000
  Ca  Ca2       1.0  0.481480747461319  0.6104382872581481  0.6058807373046875  1.0000
  Si  Si1       1.0  0.10877884179353711  0.23809754848480225  0.7226588129997253  1.0000
  Ca  Ca3       1.0  0.23524907231330866  0.3634623885154724  0.3452538847923279  1.0000
  O   O1        1.0  0.2364689409732819  0.919044256210327  0.34641286730766296  1.0000
  Si  Si2       1.0  0.3598195910453797  0.4890249073505401  0.9684748649597168  1.0000
  Ca  Ca4       1.0  0.7342253327369689  0.8632439374923706  0.8455738425254822  1.0000
  O   O2        1.0  0.27559706568717957  0.3209855258464813  0.8455092906951904  1.0000
  Ti  Ti1       1.0  0.6116860508918762  0.7403103709220885  0.21449214220046997  1.0000
  O   O3        1.0  0.43254625797271734  0.6569108366966246  0.0848008319735527  1.0000
  Ti  Ti2       1.0  0.8577452898025513  0.9859189391136169  0.47712111473083496  1.0000
  O   O4        1.0  0.6790343523025514  0.36228251457214355  0.344819575548172  1.0000
  O   O5        1.0  0.46464914083480835  0.07082230597734451  0.6052440404891968  1.0000
  O   O6        1.0  0.7924416661262512  0.8070191740989685  0.345154345035553  1.0000
  O   O7        1.0  0.1927030831575393  0.8627254962921143  0.8449832797050476  1.0000
  O   O8        1.0  0.7339639067649841  0.40515440702438354  0.845486581325531  1.0000
  O   O9        1.0  0.0030521790031343586  0.5628011226654053  0.08442410826683043  1.0000
  O   O10       1.0  0.03620032966136933  0.5947862267494202  0.6066262125968933  1.0000
  O   O11       1.0  0.5264952778816223  0.1332574039697647  0.08524797111749648  1.0000
  O   O12       1.0  0.9405824542045593  0.16640496253967285  0.605947732925415  1.0000
