data_image534
_chemical_formula_structural       OCaOCaTi2O2Si2O6
_chemical_formula_sum              "O10 Ca2 Ti2 Si2"
_cell_length_a       5.503539526803239
_cell_length_b       5.50398916687525
_cell_length_c       7.106508731842041
_cell_angle_alpha    104.321140535816
_cell_angle_beta     104.27765323160703
_cell_angle_gamma    105.74181261392914

_space_group_name_H-M_alt    "P 1"
_space_group_IT_number       1

loop_
  _space_group_symop_operation_xyz
  'x, y, z'

loop_
  _atom_site_type_symbol
  _atom_site_label
  _atom_site_symmetry_multiplicity
  _atom_site_fract_x
  _atom_site_fract_y
  _atom_site_fract_z
  _atom_site_occupancy
  O   O1        1.0  0.682519793510437  0.5308166146278381  0.16641189157962796  1.0000
  Ca  Ca1       1.0  0.0811740681529045  0.13261130452156064  0.6661087870597838  1.0000
  O   O2        1.0  0.8211877346038818  0.39177849888801575  0.6664610505104064  1.0000
  Ca  Ca2       1.0  0.4224887788295746  0.7899898290634155  0.16587850451469419  1.0000
  Ti  Ti1       1.0  0.7512378692626953  0.4614510536193847  0.4161247313022613  1.0000
  Ti  Ti2       1.0  0.7516194581985474  0.46108442544937134  0.9161944985389708  1.0000
  O   O3        1.0  0.6384044885635376  0.7743425369262694  0.53318190574646  1.0000
  O   O4        1.0  0.501653790473938  0.08410541713237762  0.8245019912719725  1.0000
  Si  Si1       1.0  0.4317954182624817  0.7809160351753235  0.6663375496864318  1.0000
  Si  Si2       1.0  0.07104074209928513  0.14186203479766846  0.1658850014209747  1.0000
  O   O5        1.0  0.0013176202774047563  0.839081048965454  0.008744795806705952  1.0000
  O   O6        1.0  0.438689649105072  0.5745133757591248  0.7992811203002929  1.0000
  O   O7        1.0  0.8649476170539856  0.14893263578414917  0.2994597256183624  1.0000
  O   O8        1.0  0.06419993937015533  0.34828484058380127  0.03330923989415169  1.0000
  O   O9        1.0  0.37423843145370483  0.21234753727912903  0.3244683444499969  1.0000
  O   O10       1.0  0.12919220328330994  0.711212694644928  0.5082507729530334  1.0000
