data_image100
_chemical_formula_structural       TiCaSiTiO2TiSi
_chemical_formula_sum              "Ti3 Ca1 Si2 O2"
_cell_length_a       3.8261629980879364
_cell_length_b       3.8315548012565217
_cell_length_c       8.741720199584961
_cell_angle_alpha    90.03277375077073
_cell_angle_beta     89.94010857458946
_cell_angle_gamma    89.96460846470991

_space_group_name_H-M_alt    "P 1"
_space_group_IT_number       1

loop_
  _space_group_symop_operation_xyz
  'x, y, z'

loop_
  _atom_site_type_symbol
  _atom_site_label
  _atom_site_symmetry_multiplicity
  _atom_site_fract_x
  _atom_site_fract_y
  _atom_site_fract_z
  _atom_site_occupancy
  Ti  Ti1       1.0  0.7158506512641908  0.5785688757896423  0.997796893119812  1.0000
  Ca  Ca1       1.0  0.21564973890781405  0.578791618347168  0.601077139377594  1.0000
  Si  Si1       1.0  0.7160796523094178  0.07884912937879562  0.8100401163101196  1.0000
  Ti  Ti2       1.0  0.2157496362924576  0.07850675284862518  0.999530017375946  1.0000
  O   O1        1.0  0.21620343625545504  0.07856009900569916  0.4512304663658142  1.0000
  O   O2        1.0  0.7162972688674928  0.5783512592315674  0.45112499594688416  1.0000
  Ti  Ti3       1.0  0.7159283161163331  0.07923869043588638  0.36815816164016724  1.0000
  Si  Si2       1.0  0.21634119749069217  0.5779318213462828  0.18277108669281006  1.0000
