data_image75
_chemical_formula_structural       TiCa2O3SiO3TiSiO4
_chemical_formula_sum              "Ti2 Ca2 O10 Si2"
_cell_length_a       4.837082655030541
_cell_length_b       6.002459188913908
_cell_length_c       7.51279878616333
_cell_angle_alpha    99.57467838085897
_cell_angle_beta     93.88132573691603
_cell_angle_gamma    90.34806216388398

_space_group_name_H-M_alt    "P 1"
_space_group_IT_number       1

loop_
  _space_group_symop_operation_xyz
  'x, y, z'

loop_
  _atom_site_type_symbol
  _atom_site_label
  _atom_site_symmetry_multiplicity
  _atom_site_fract_x
  _atom_site_fract_y
  _atom_site_fract_z
  _atom_site_occupancy
  Ti  Ti1       1.0  0.3805050551891327  0.10305821895599364  0.2260737270116806  1.0000
  Ca  Ca1       1.0  0.988736093044281  0.9267536997795105  0.5124748349189758  1.0000
  Ca  Ca2       1.0  0.9339176416397095  0.2898019254207611  0.948180615901947  1.0000
  O   O1        1.0  0.4548474848270416  0.8212272524833679  0.039987072348594666  1.0000
  O   O2        1.0  0.4425709545612335  0.3236568570137024  0.07342179864645004  1.0000
  O   O3        1.0  0.6577211618423462  0.5142697691917419  0.7766474485397339  1.0000
  Si  Si1       1.0  0.5494241118431091  0.7815125584602357  0.8313015103340149  1.0000
  O   O4        1.0  0.47325006127357483  0.39145520329475403  0.419254332780838  1.0000
  O   O5        1.0  0.17606456577777863  0.2507481276988983  0.6781255602836609  1.0000
  O   O6        1.0  0.9020322561264038  0.6004397869110107  0.23533740639686584  1.0000
  Ti  Ti2       1.0  0.5476893186569214  0.6051019430160522  0.23279054462909698  1.0000
  Si  Si2       1.0  0.3768102526664734  0.43782103061676025  0.627986490726471  1.0000
  O   O7        1.0  0.26681941747665405  0.7042757868766785  0.6841878890991211  1.0000
  O   O8        1.0  0.024870986118912697  0.0963485911488533  0.2237032949924469  1.0000
  O   O9        1.0  0.4874042570590973  0.8899484276771544  0.38441145420074463  1.0000
  O   O10       1.0  0.7532707452774048  0.964862585067749  0.7818121910095215  1.0000
