data_image64
_chemical_formula_structural       TiCaSiO6SiO2
_chemical_formula_sum              "Ti1 Ca1 Si2 O8"
_cell_length_a       5.656419606723843
_cell_length_b       5.654411825074662
_cell_length_c       5.667949199676514
_cell_angle_alpha    106.36118756271772
_cell_angle_beta     106.36672695073456
_cell_angle_gamma    115.5798430702312

_space_group_name_H-M_alt    "P 1"
_space_group_IT_number       1

loop_
  _space_group_symop_operation_xyz
  'x, y, z'

loop_
  _atom_site_type_symbol
  _atom_site_label
  _atom_site_symmetry_multiplicity
  _atom_site_fract_x
  _atom_site_fract_y
  _atom_site_fract_z
  _atom_site_occupancy
  Ti  Ti1       1.0  0.6846362352371216  0.07189020514488219  0.03660288453102112  1.0000
  Ca  Ca1       1.0  0.9353523254394531  0.821671187877655  0.5368770360946655  1.0000
  Si  Si1       1.0  0.4358006715774536  0.32160893082618713  0.5370084643363953  1.0000
  O   O1        1.0  0.07413849979639053  0.15906745195388794  0.33791258931159973  1.0000
  O   O2        1.0  0.5982125997543335  0.2853014171123504  0.3374957740306854  1.0000
  O   O3        1.0  0.5980802178382874  0.6833024024963379  0.7355313897132874  1.0000
  O   O4        1.0  0.9981625080108643  0.5564597845077515  0.20929841697216026  1.0000
  O   O5        1.0  0.9979534149169922  0.21080560982227325  0.864985466003418  1.0000
  O   O6        1.0  0.20151306688785545  0.7601419091224669  0.8648014664649963  1.0000
  Si  Si2       1.0  0.18583764135837547  0.5724833607673644  0.036263611167669255  1.0000
  O   O7        1.0  0.5476868748664856  0.7594237923622131  0.20892521739006042  1.0000
  O   O8        1.0  0.47206413745880127  0.158948615193367  0.7361055016517639  1.0000
