data_image83
_chemical_formula_structural       OSi2CaSiO4TiSiO2CaO4
_chemical_formula_sum              "O11 Si4 Ca2 Ti1"
_cell_length_a       5.971467950277453
_cell_length_b       6.40309087895336
_cell_length_c       7.890644550323486
_cell_angle_alpha    93.20114841148204
_cell_angle_beta     110.73039145666972
_cell_angle_gamma    99.48382237386072

_space_group_name_H-M_alt    "P 1"
_space_group_IT_number       1

loop_
  _space_group_symop_operation_xyz
  'x, y, z'

loop_
  _atom_site_type_symbol
  _atom_site_label
  _atom_site_symmetry_multiplicity
  _atom_site_fract_x
  _atom_site_fract_y
  _atom_site_fract_z
  _atom_site_occupancy
  O   O1        1.0  0.1099306270480156  0.3381165564060211  0.1114121749997139  1.0000
  Si  Si1       1.0  0.14758248627185822  0.5379023551940918  0.9896733164787292  1.0000
  Si  Si2       1.0  0.997463583946228  0.47506946325302124  0.5622584819793701  1.0000
  Ca  Ca1       1.0  0.5635309815406799  0.2950807511806488  0.6538874506950378  1.0000
  Si  Si3       1.0  0.04635794833302498  0.21110466122627256  0.2562919855117798  1.0000
  O   O2        1.0  0.542332649230957  0.6464192867279053  0.713999330997467  1.0000
  O   O3        1.0  0.10078521072864532  0.7321673631668091  0.5659874677658081  1.0000
  O   O4        1.0  0.038908835500478745  0.41722023487091064  0.7729447484016418  1.0000
  O   O5        1.0  0.9842092990875244  0.7077428102493286  0.011681628413498402  1.0000
  Ti  Ti1       1.0  0.6863253712654114  0.8010072708129883  0.9711462259292603  1.0000
  Si  Si4       1.0  0.4008297324180603  0.8389630317687988  0.6371065974235535  1.0000
  O   O6        1.0  0.1405523419380188  0.32433319091796875  0.4677266776561737  1.0000
  O   O7        1.0  0.45807144045829773  0.9567827582359313  0.4792066216468811  1.0000
  Ca  Ca2       1.0  0.6711962819099426  0.7757130265235901  0.36600086092948914  1.0000
  O   O8        1.0  0.5090742707252502  0.01149117387831211  0.8226036429405212  1.0000
  O   O9        1.0  0.4363391399383545  0.6465414762496948  0.056206170469522476  1.0000
  O   O10       1.0  0.7112514972686768  0.432069718837738  0.4415115714073181  1.0000
  O   O11       1.0  0.8445717096328735  0.00790208764374256  0.20596082508563998  1.0000
