data_image36
_chemical_formula_structural       CaO2CaOCaSi2TiO5
_chemical_formula_sum              "Ca3 O8 Si2 Ti1"
_cell_length_a       5.447922071737645
_cell_length_b       5.39267586292169
_cell_length_c       7.561651706695557
_cell_angle_alpha    91.7392213414345
_cell_angle_beta     89.48771781975994
_cell_angle_gamma    118.4756014902472

_space_group_name_H-M_alt    "P 1"
_space_group_IT_number       1

loop_
  _space_group_symop_operation_xyz
  'x, y, z'

loop_
  _atom_site_type_symbol
  _atom_site_label
  _atom_site_symmetry_multiplicity
  _atom_site_fract_x
  _atom_site_fract_y
  _atom_site_fract_z
  _atom_site_occupancy
  Ca  Ca1       1.0  0.8780905604362488  0.07624144107103348  0.1599544137716293  1.0000
  O   O1        1.0  0.3056637942790985  0.5036964416503906  0.14235301315784454  1.0000
  O   O2        1.0  0.9189189672470093  0.7778994441032409  0.583802342414856  1.0000
  Ca  Ca2       1.0  0.5400233268737793  0.4249272346496582  0.3967184722423553  1.0000
  O   O3        1.0  0.4840358793735504  0.0625915452837944  0.5949842929840088  1.0000
  Ca  Ca3       1.0  0.5299395322799683  0.33878976106643677  0.9284930229187011  1.0000
  Si  Si1       1.0  0.20237195491790771  0.7752752900123596  0.6525775790214537  1.0000
  Si  Si2       1.0  0.20150998234748838  0.7344270348548888  0.09473534673452376  1.0000
  Ti  Ti1       1.0  0.8733547925949097  0.11706057190895079  0.6510563492774964  1.0000
  O   O4        1.0  0.2019372284412384  0.4825975000858307  0.5838508605957031  1.0000
  O   O5        1.0  0.4184207618236542  0.049591686576604836  0.1803343743085861  1.0000
  O   O6        1.0  0.20816016197204582  0.799324870109558  0.8771022558212279  1.0000
  O   O7        1.0  0.8754948377609253  0.6271188855171204  0.15652102231979367  1.0000
  O   O8        1.0  0.8464862704277039  0.1590535193681717  0.8849294781684874  1.0000
