data_image361
_chemical_formula_structural       OCaSi2TiCaSiOSiO5
_chemical_formula_sum              "O7 Ca2 Si4 Ti1"
_cell_length_a       5.49980974536849
_cell_length_b       6.364022075587377
_cell_length_c       6.54892635345459
_cell_angle_alpha    107.37621561533912
_cell_angle_beta     90.11690119233674
_cell_angle_gamma    115.80018711618739

_space_group_name_H-M_alt    "P 1"
_space_group_IT_number       1

loop_
  _space_group_symop_operation_xyz
  'x, y, z'

loop_
  _atom_site_type_symbol
  _atom_site_label
  _atom_site_symmetry_multiplicity
  _atom_site_fract_x
  _atom_site_fract_y
  _atom_site_fract_z
  _atom_site_occupancy
  O   O1        1.0  0.44616585969924927  0.03628489747643471  0.882723093032837  1.0000
  Ca  Ca1       1.0  0.7167336344718933  0.5777932405471802  0.2570948898792267  1.0000
  Si  Si1       1.0  0.38191676139831543  0.9047912359237671  0.602582573890686  1.0000
  Si  Si2       1.0  0.16561052203178406  0.4762282371520996  0.9746280908584597  1.0000
  Ti  Ti1       1.0  0.1188221350312233  0.38150691986083984  0.46737185120582586  1.0000
  Ca  Ca2       1.0  0.8729124069213867  0.886634647846222  0.8301197886466981  1.0000
  Si  Si3       1.0  0.39472657442092896  0.930374264717102  0.09505853056907658  1.0000
  O   O2        1.0  0.07109146565198898  0.28291481733322144  0.7343378663063049  1.0000
  Si  Si4       1.0  0.5235258340835571  0.1847960650920868  0.4293739199638367  1.0000
  O   O3        1.0  0.4990549683570862  0.6985366940498352  0.029845993965864216  1.0000
  O   O4        1.0  0.05527076497673988  0.713219165802002  0.5475713014602661  1.0000
  O   O5        1.0  0.05606386438012123  0.6981984972953796  0.02984787523746494  1.0000
  O   O6        1.0  0.09202233701944351  0.3264910876750946  0.14377887547016144  1.0000
  O   O7        1.0  0.5138574242591858  0.7100542783737183  0.5478838682174683  1.0000
