data_image125
_chemical_formula_structural       OSiOTiSiO3CaO
_chemical_formula_sum              "O6 Si2 Ti1 Ca1"
_cell_length_a       5.609810588208551
_cell_length_b       5.6656752434295115
_cell_length_c       5.796106815338135
_cell_angle_alpha    104.3553177871112
_cell_angle_beta     102.89869969038811
_cell_angle_gamma    123.67082057996461

_space_group_name_H-M_alt    "P 1"
_space_group_IT_number       1

loop_
  _space_group_symop_operation_xyz
  'x, y, z'

loop_
  _atom_site_type_symbol
  _atom_site_label
  _atom_site_symmetry_multiplicity
  _atom_site_fract_x
  _atom_site_fract_y
  _atom_site_fract_z
  _atom_site_occupancy
  O   O1        1.0  0.23350276052951813  0.6728280782699585  0.6342272162437439  1.0000
  Si  Si1       1.0  0.04295033589005467  0.7609723210334778  0.16120259463787082  1.0000
  O   O2        1.0  0.6664639115333557  0.4972621202468872  0.07021017372608185  1.0000
  Ti  Ti1       1.0  0.33026283979415894  0.09154078364372253  0.7611142992973328  1.0000
  Si  Si2       1.0  0.9935958385467529  0.39470013976097107  0.6999152898788452  1.0000
  O   O3        1.0  0.1379382163286209  0.54714035987854  0.03166951611638071  1.0000
  O   O4        1.0  0.984574019908905  0.09780333936214447  0.5766696333885193  1.0000
  O   O5        1.0  0.6315440535545349  0.281924843788147  0.5803079605102539  1.0000
  Ca  Ca1       1.0  0.46795159578323364  0.5334513187408447  0.3723405599594116  1.0000
  O   O6        1.0  0.12746933102607735  0.9981393218040467  0.02465252950787552  1.0000
