data_image250
_chemical_formula_structural       CaTiOSiO5
_chemical_formula_sum              "Ca1 Ti1 O6 Si1"
_cell_length_a       4.991974573480138
_cell_length_b       5.010806986370873
_cell_length_c       5.0129547119140625
_cell_angle_alpha    120.09733474904594
_cell_angle_beta     90.03026707375659
_cell_angle_gamma    90.1595830429487

_space_group_name_H-M_alt    "P 1"
_space_group_IT_number       1

loop_
  _space_group_symop_operation_xyz
  'x, y, z'

loop_
  _atom_site_type_symbol
  _atom_site_label
  _atom_site_symmetry_multiplicity
  _atom_site_fract_x
  _atom_site_fract_y
  _atom_site_fract_z
  _atom_site_occupancy
  Ca  Ca1       1.0  0.2501198351383209  0.8604807257652283  0.7938209176063538  1.0000
  Ti  Ti1       1.0  0.7500476837158203  0.19433896243572235  0.4610404968261719  1.0000
  O   O1        1.0  0.5461529493331909  0.8359712958335876  0.4068298935890198  1.0000
  Si  Si1       1.0  0.7496015429496765  0.5271664261817932  0.12680117785930634  1.0000
  O   O2        1.0  0.9540039300918579  0.8355315327644347  0.1561720371246338  1.0000
  O   O3        1.0  0.546289324760437  0.49958389997482305  0.8189313411712646  1.0000
  O   O4        1.0  0.9536446332931519  0.24743519723415372  0.8189792633056641  1.0000
  O   O5        1.0  0.5462809205055237  0.2479981034994125  0.15587614476680756  1.0000
  O   O6        1.0  0.9537447690963745  0.4988934695720672  0.4063967764377594  1.0000
