data_image275
_chemical_formula_structural       Ca2O2CaO2TiO3TiOSiO
_chemical_formula_sum              "Ca3 O9 Ti2 Si1"
_cell_length_a       5.8796788534600255
_cell_length_b       5.507468534239893
_cell_length_c       7.079660415649414
_cell_angle_alpha    92.77967112122002
_cell_angle_beta     107.97833000633105
_cell_angle_gamma    104.88988320321457

_space_group_name_H-M_alt    "P 1"
_space_group_IT_number       1

loop_
  _space_group_symop_operation_xyz
  'x, y, z'

loop_
  _atom_site_type_symbol
  _atom_site_label
  _atom_site_symmetry_multiplicity
  _atom_site_fract_x
  _atom_site_fract_y
  _atom_site_fract_z
  _atom_site_occupancy
  Ca  Ca1       1.0  0.2558175027370453  0.1797916442155838  0.9177790284156798  1.0000
  Ca  Ca2       1.0  0.24507582187652588  0.27892494201660156  0.415906935930252  1.0000
  O   O1        1.0  0.8944080471992493  0.7655711174011229  0.8756397962570189  1.0000
  O   O2        1.0  0.568949282169342  0.713618278503418  0.4860075414180755  1.0000
  Ca  Ca3       1.0  0.9362527132034302  0.6147121787071228  0.575212299823761  1.0000
  O   O3        1.0  0.5734385251998901  0.9742614030838013  0.999634563922882  1.0000
  O   O4        1.0  0.3093084990978241  0.5008389949798584  0.7260046005249023  1.0000
  Ti  Ti1       1.0  0.6189488768577575  0.9117632508277892  0.2697277963161468  1.0000
  O   O5        1.0  0.2892270088195801  0.9748901128768921  0.6347708702087402  1.0000
  O   O6        1.0  0.8229647874832153  0.19911891222000122  0.4142066836357116  1.0000
  O   O7        1.0  0.27248603105545044  0.9589840173721313  0.20410455763339994  1.0000
  Ti  Ti2       1.0  0.5180192589759826  0.8097790479660033  0.7414868474006653  1.0000
  O   O8        1.0  0.12532564997673037  0.4514473378658295  0.10921117663383482  1.0000
  Si  Si1       1.0  0.02612680010497569  0.7033408880233765  0.1035618633031845  1.0000
  O   O9        1.0  0.8466362953186035  0.7091829776763916  0.24163189530372617  1.0000
