data_image233
_chemical_formula_structural       OCaSiO2TiO2SiO2
_chemical_formula_sum              "O7 Ca1 Si2 Ti1"
_cell_length_a       4.646453347609141
_cell_length_b       5.399302015266385
_cell_length_c       5.404937744140625
_cell_angle_alpha    102.39086710666759
_cell_angle_beta     96.82916741028559
_cell_angle_gamma    96.87007266034124

_space_group_name_H-M_alt    "P 1"
_space_group_IT_number       1

loop_
  _space_group_symop_operation_xyz
  'x, y, z'

loop_
  _atom_site_type_symbol
  _atom_site_label
  _atom_site_symmetry_multiplicity
  _atom_site_fract_x
  _atom_site_fract_y
  _atom_site_fract_z
  _atom_site_occupancy
  O   O1        1.0  0.7211812138557434  0.7658277750015259  0.1303815096616745  1.0000
  Ca  Ca1       1.0  0.9581456780433655  0.38471454381942743  0.8520482778549194  1.0000
  Si  Si1       1.0  0.5381142497062683  0.8923600316047667  0.9182542562484741  1.0000
  O   O2        1.0  0.19695478677749634  0.10691072046756743  0.4699493944644928  1.0000
  O   O3        1.0  0.6850109100341797  0.4721958637237548  0.5154679417610168  1.0000
  Ti  Ti1       1.0  0.9593471884727478  0.7801008820533752  0.45674359798431396  1.0000
  O   O4        1.0  0.16153234243392944  0.5205627083778381  0.27079352736473083  1.0000
  O   O5        1.0  0.4591260254383087  0.17631828784942627  0.060290101915597916  1.0000
  Si  Si2       1.0  0.37965115904808044  0.3191506862640381  0.34422096610069275  1.0000
  O   O6        1.0  0.23431496322154993  0.7201127409934996  0.7640699148178101  1.0000
  O   O7        1.0  0.7573190331459045  0.9653213024139404  0.7162777185440063  1.0000
