data_image375
_chemical_formula_structural       TiSiCaOTiOSi2
_chemical_formula_sum              "Ti2 Si3 Ca1 O2"
_cell_length_a       3.777020191087302
_cell_length_b       3.777277737628032
_cell_length_c       9.318503379821777
_cell_angle_alpha    90.06477318581322
_cell_angle_beta     90.0731060177678
_cell_angle_gamma    89.9892927676254

_space_group_name_H-M_alt    "P 1"
_space_group_IT_number       1

loop_
  _space_group_symop_operation_xyz
  'x, y, z'

loop_
  _atom_site_type_symbol
  _atom_site_label
  _atom_site_symmetry_multiplicity
  _atom_site_fract_x
  _atom_site_fract_y
  _atom_site_fract_z
  _atom_site_occupancy
  Ti  Ti1       1.0  0.10306648164987565  0.08720842748880385  0.5684352517127991  1.0000
  Si  Si1       1.0  0.6034914851188661  0.08711270987987517  0.3999446630477905  1.0000
  Ca  Ca1       1.0  0.603471875190735  0.08715607970952988  0.9232885241508484  1.0000
  O   O1        1.0  0.10383784770965578  0.08620887249708176  0.06637899577617645  1.0000
  Ti  Ti2       1.0  0.6030566692352296  0.5870696306228637  0.5684353113174438  1.0000
  O   O2        1.0  0.6043105721473695  0.5875477790832518  0.06654353439807892  1.0000
  Si  Si2       1.0  0.10407507419586183  0.5867542028427124  0.11073211580514908  1.0000
  Si  Si3       1.0  0.10309387743473054  0.586762547492981  0.7398080229759216  1.0000
