data_image531
_chemical_formula_structural       TiO2CaSiO3SiO2Ca
_chemical_formula_sum              "Ti1 O7 Ca2 Si2"
_cell_length_a       5.674757999020221
_cell_length_b       5.763622906277952
_cell_length_c       7.178399085998535
_cell_angle_alpha    101.30822055895419
_cell_angle_beta     107.49182292632392
_cell_angle_gamma    118.36486815150889

_space_group_name_H-M_alt    "P 1"
_space_group_IT_number       1

loop_
  _space_group_symop_operation_xyz
  'x, y, z'

loop_
  _atom_site_type_symbol
  _atom_site_label
  _atom_site_symmetry_multiplicity
  _atom_site_fract_x
  _atom_site_fract_y
  _atom_site_fract_z
  _atom_site_occupancy
  Ti  Ti1       1.0  0.9274980425834656  0.744861900806427  0.9399486184120177  1.0000
  O   O1        1.0  0.20762316882610313  0.9939168691635131  0.26693841814994806  1.0000
  O   O2        1.0  0.23782314360141749  0.964075207710266  0.8571627736091614  1.0000
  Ca  Ca1       1.0  0.13545988500118256  0.370712548494339  0.28719860315322876  1.0000
  Si  Si1       1.0  0.5541744828224182  0.17008793354034424  0.46266269683837885  1.0000
  O   O3        1.0  0.475713849067688  0.95924311876297  0.6004693508148193  1.0000
  O   O4        1.0  0.8266024589538574  0.4019697308540344  0.9949905276298522  1.0000
  O   O5        1.0  0.8218808770179749  0.17632533609867096  0.4197474420070648  1.0000
  Si  Si2       1.0  0.559622347354889  0.05489292368292809  0.8622039556503295  1.0000
  O   O6        1.0  0.6396470665931702  0.49159568548202515  0.5876563787460327  1.0000
  O   O7        1.0  0.7128230929374695  0.9041792154312134  0.9640952348709105  1.0000
  Ca  Ca2       1.0  0.9493426084518433  0.8769372701644897  0.5077232718467712  1.0000
