data_image143
_chemical_formula_structural       SiO2CaOTiSiO5
_chemical_formula_sum              "Si2 O8 Ca1 Ti1"
_cell_length_a       4.9718811182625435
_cell_length_b       5.141306814476591
_cell_length_c       6.354656219482422
_cell_angle_alpha    112.55465146982087
_cell_angle_beta     96.01891554901881
_cell_angle_gamma    90.22558309874746

_space_group_name_H-M_alt    "P 1"
_space_group_IT_number       1

loop_
  _space_group_symop_operation_xyz
  'x, y, z'

loop_
  _atom_site_type_symbol
  _atom_site_label
  _atom_site_symmetry_multiplicity
  _atom_site_fract_x
  _atom_site_fract_y
  _atom_site_fract_z
  _atom_site_occupancy
  Si  Si1       1.0  0.23148931562900543  0.40859523415565485  0.5677160024642944  1.0000
  O   O1        1.0  0.003244519233703612  0.1843932271003723  0.6070942878723145  1.0000
  O   O2        1.0  0.4647151231765747  0.1557130515575409  0.5016151666641235  1.0000
  Ca  Ca1       1.0  0.026217006146907806  0.400611937046051  0.0410480722784996  1.0000
  O   O3        1.0  0.3232448697090149  0.604413092136383  0.8483571410179137  1.0000
  Ti  Ti1       1.0  0.7369197607040405  0.888208270072937  0.5128851532936096  1.0000
  Si  Si2       1.0  0.539760172367096  0.8731008768081664  0.9987556934356688  1.0000
  O   O4        1.0  0.9771882891654968  0.5673336386680603  0.45554989576339716  1.0000
  O   O5        1.0  0.3346537947654724  0.11068914830684662  0.11711077392101286  1.0000
  O   O6        1.0  0.42295628786087036  0.613211989402771  0.44979882240295405  1.0000
  O   O7        1.0  0.7170756459236145  0.9890881180763244  0.8490989208221434  1.0000
  O   O8        1.0  0.7408975958824158  0.7809592485427856  0.17399528622627258  1.0000
