data_image312
_chemical_formula_structural       OTiCaO6Si2O
_chemical_formula_sum              "O8 Ti1 Ca1 Si2"
_cell_length_a       5.647914486613374
_cell_length_b       5.644870061279816
_cell_length_c       5.648664474487305
_cell_angle_alpha    106.57281982788913
_cell_angle_beta     106.5573357640827
_cell_angle_gamma    115.34700396687535

_space_group_name_H-M_alt    "P 1"
_space_group_IT_number       1

loop_
  _space_group_symop_operation_xyz
  'x, y, z'

loop_
  _atom_site_type_symbol
  _atom_site_label
  _atom_site_symmetry_multiplicity
  _atom_site_fract_x
  _atom_site_fract_y
  _atom_site_fract_z
  _atom_site_occupancy
  O   O1        1.0  0.3394859731197357  0.276118516921997  0.35516008734703064  1.0000
  Ti  Ti1       1.0  0.42522481083869934  0.0617339126765728  0.0538681447505951  1.0000
  Ca  Ca1       1.0  0.6751595735549927  0.8108495473861694  0.5535227060317993  1.0000
  O   O2        1.0  0.2108408808708191  0.14756466448307037  0.7527962327003479  1.0000
  O   O3        1.0  0.33793601393699646  0.67345130443573  0.752212405204773  1.0000
  O   O4        1.0  0.7375125885009766  0.5450853109359741  0.22560741007328036  1.0000
  O   O5        1.0  0.28677916526794434  0.7488607168197632  0.2249759882688522  1.0000
  O   O6        1.0  0.7371621131896973  0.19955118000507355  0.8820545673370362  1.0000
  O   O7        1.0  0.8122873306274414  0.14656642079353333  0.35489195585250854  1.0000
  Si  Si1       1.0  0.9251685738563538  0.560559868812561  0.05330492556095124  1.0000
  Si  Si2       1.0  0.17543064057826996  0.31076881289482117  0.5540273189544678  1.0000
  O   O8        1.0  0.9412877559661865  0.749152421951294  0.8818148970603944  1.0000
