data_image94
_chemical_formula_structural       SiOTiO2TiCaO2Si2O7
_chemical_formula_sum              "Si3 O12 Ti2 Ca1"
_cell_length_a       5.1779699863171444
_cell_length_b       6.742297290717591
_cell_length_c       7.413824081420898
_cell_angle_alpha    88.94053771090736
_cell_angle_beta     76.2174735721934
_cell_angle_gamma    65.08864226050186

_space_group_name_H-M_alt    "P 1"
_space_group_IT_number       1

loop_
  _space_group_symop_operation_xyz
  'x, y, z'

loop_
  _atom_site_type_symbol
  _atom_site_label
  _atom_site_symmetry_multiplicity
  _atom_site_fract_x
  _atom_site_fract_y
  _atom_site_fract_z
  _atom_site_occupancy
  Si  Si1       1.0  0.413211464881897  0.372277319431305  0.35133841633796686  1.0000
  O   O1        1.0  0.7118753790855408  0.14673908054828647  0.3140874803066253  1.0000
  Ti  Ti1       1.0  0.011120089329779148  0.8538852334022522  0.2642109990119934  1.0000
  O   O2        1.0  0.12570181488990784  0.326442301273346  0.3899334371089935  1.0000
  O   O3        1.0  0.05733160674571991  0.8509948253631592  0.5012597441673279  1.0000
  Ti  Ti2       1.0  0.6942459344863892  0.6182634234428406  0.003985428251326084  1.0000
  Ca  Ca1       1.0  0.8341274261474609  0.23789891600608828  0.6242554783821105  1.0000
  O   O4        1.0  0.5188802480697632  0.6016035676002504  0.8057912588119506  1.0000
  O   O5        1.0  0.4048125147819519  0.5514400005340576  0.19919067621231076  1.0000
  Si  Si2       1.0  0.23593559861183167  0.7246437072753906  0.6845725178718566  1.0000
  Si  Si3       1.0  0.2538500130176544  0.09323650598526002  0.9120418429374694  1.0000
  O   O6        1.0  0.8043725490570067  0.7255564928054811  0.19852635264396667  1.0000
  O   O7        1.0  0.23056748509407043  0.9743683934211732  0.7266902923583983  1.0000
  O   O8        1.0  0.5433993935585022  0.1335067451000214  0.8580940961837767  1.0000
  O   O9        1.0  0.27310740947723383  0.9285524487495423  0.07532037794589995  1.0000
  O   O10       1.0  0.9410096406936646  0.7204814553260803  0.8363162279129027  1.0000
  O   O11       1.0  0.9624286890029907  0.3276554048061371  0.9547769427299498  1.0000
  O   O12       1.0  0.40549635887145996  0.4820710122585297  0.5516981482505798  1.0000
