data_image134
_chemical_formula_structural       OSiCaO4TiSiO
_chemical_formula_sum              "O6 Si2 Ca1 Ti1"
_cell_length_a       5.3011248398447846
_cell_length_b       5.302615111104567
_cell_length_c       6.336496353149414
_cell_angle_alpha    65.19116365047488
_cell_angle_beta     65.16752854819838
_cell_angle_gamma    59.89637645458707

_space_group_name_H-M_alt    "P 1"
_space_group_IT_number       1

loop_
  _space_group_symop_operation_xyz
  'x, y, z'

loop_
  _atom_site_type_symbol
  _atom_site_label
  _atom_site_symmetry_multiplicity
  _atom_site_fract_x
  _atom_site_fract_y
  _atom_site_fract_z
  _atom_site_occupancy
  O   O1        1.0  0.11268192529678345  0.1421101838350296  0.6296163201332092  1.0000
  Si  Si1       1.0  0.543485701084137  0.35805463790893555  0.13916847109794617  1.0000
  Ca  Ca1       1.0  0.7880764603614807  0.6007416248321533  0.4102487862110138  1.0000
  O   O2        1.0  0.7027981877326965  0.9235064387321473  0.6313081383705139  1.0000
  O   O3        1.0  0.662283182144165  0.04952870681881905  0.06752319633960724  1.0000
  O   O4        1.0  0.8087803721427919  0.4749759435653687  0.06705339252948761  1.0000
  O   O5        1.0  0.2366570681333542  0.6215746402740479  0.06521070003509521  1.0000
  Ti  Ti1       1.0  0.9780587553977966  0.7906158566474915  0.8404210805892944  1.0000
  Si  Si2       1.0  0.4050701856613159  0.21697604656219485  0.5601492524147034  1.0000
  O   O6        1.0  0.3323160707950592  0.5130228400230408  0.6323488354682922  1.0000
