data_image588
_chemical_formula_structural       SiOCaSiTiO7
_chemical_formula_sum              "Si2 O8 Ca1 Ti1"
_cell_length_a       6.182256822694057
_cell_length_b       7.310869199119687
_cell_length_c       5.5976457595825195
_cell_angle_alpha    105.64265068812763
_cell_angle_beta     105.8411980525638
_cell_angle_gamma    121.5265786082489

_space_group_name_H-M_alt    "P 1"
_space_group_IT_number       1

loop_
  _space_group_symop_operation_xyz
  'x, y, z'

loop_
  _atom_site_type_symbol
  _atom_site_label
  _atom_site_symmetry_multiplicity
  _atom_site_fract_x
  _atom_site_fract_y
  _atom_site_fract_z
  _atom_site_occupancy
  Si  Si1       1.0  0.7676585912704467  0.9300013184547424  0.8728001117706298  1.0000
  O   O1        1.0  0.6582010388374329  0.4041579067707062  0.11899638175964351  1.0000
  Ca  Ca1       1.0  0.1922640353441238  0.26569855213165283  0.6702513098716736  1.0000
  Si  Si2       1.0  0.8028715252876281  0.382806658744812  0.9174198508262633  1.0000
  Ti  Ti1       1.0  0.6243199706077576  0.5489827990531921  0.4318197667598724  1.0000
  O   O2        1.0  0.7463437318801879  0.12519793212413788  0.7887166738510131  1.0000
  O   O3        1.0  0.6501674652099609  0.3910570442676544  0.6346542835235596  1.0000
  O   O4        1.0  0.9365513324737547  0.8844825029373168  0.6876575350761412  1.0000
  O   O5        1.0  0.3513583540916443  0.5285965204238892  0.1463154405355453  1.0000
  O   O6        1.0  0.9492830634117125  0.0476481057703495  0.20445437729358676  1.0000
  O   O7        1.0  0.4585998058319091  0.6442256569862366  0.6809880137443542  1.0000
  O   O8        1.0  0.16916614770889282  0.6064549088478088  0.10896252840757366  1.0000
