data_image339
_chemical_formula_structural       CaO2SiTiOSiO3
_chemical_formula_sum              "Ca1 O6 Si2 Ti1"
_cell_length_a       5.172730502619344
_cell_length_b       5.190249870599299
_cell_length_c       6.110543251037598
_cell_angle_alpha    114.83844171586887
_cell_angle_beta     90.05566171310629
_cell_angle_gamma    120.03410958928019

_space_group_name_H-M_alt    "P 1"
_space_group_IT_number       1

loop_
  _space_group_symop_operation_xyz
  'x, y, z'

loop_
  _atom_site_type_symbol
  _atom_site_label
  _atom_site_symmetry_multiplicity
  _atom_site_fract_x
  _atom_site_fract_y
  _atom_site_fract_z
  _atom_site_occupancy
  Ca  Ca1       1.0  0.19650311768054965  0.5130420327186586  0.7849280834197998  1.0000
  O   O1        1.0  0.27159392833709717  0.3150730133056641  0.056001946330070516  1.0000
  O   O2        1.0  0.6649951338768005  0.055890649557113654  0.05616846680641175  1.0000
  Si  Si1       1.0  0.9615035653114319  0.04390152171254159  0.08016696572303772  1.0000
  Ti  Ti1       1.0  0.696270763874054  0.5122423171997071  0.28373312950134283  1.0000
  O   O3        1.0  0.9235857129096985  0.7098379135131837  0.05653493851423268  1.0000
  Si  Si2       1.0  0.430866539478302  0.9812214970588685  0.4880145490169526  1.0000
  O   O4        1.0  0.12015695124864582  0.7074350118637086  0.5101878643035889  1.0000
  O   O5        1.0  0.7273208498954773  0.9675700664520265  0.5097535252571107  1.0000
  O   O6        1.0  0.46768683195114136  0.31417512893676763  0.5105878710746766  1.0000
