data_image357
_chemical_formula_structural       CaSiTiCaO3CaO4
_chemical_formula_sum              "Ca3 Si1 Ti1 O7"
_cell_length_a       3.468217010447788
_cell_length_b       5.026024854524675
_cell_length_c       9.20974063873291
_cell_angle_alpha    106.02467723897622
_cell_angle_beta     100.8073214943279
_cell_angle_gamma    89.9558044432433

_space_group_name_H-M_alt    "P 1"
_space_group_IT_number       1

loop_
  _space_group_symop_operation_xyz
  'x, y, z'

loop_
  _atom_site_type_symbol
  _atom_site_label
  _atom_site_symmetry_multiplicity
  _atom_site_fract_x
  _atom_site_fract_y
  _atom_site_fract_z
  _atom_site_occupancy
  Ca  Ca1       1.0  0.4621396362781524  0.43187120556831354  0.6516886353492737  1.0000
  Si  Si1       1.0  0.1477510929107666  0.6336881518363953  0.026930466294288635  1.0000
  Ti  Ti1       1.0  0.34935081005096436  0.846323549747467  0.4294954240322113  1.0000
  Ca  Ca2       1.0  0.04608822613954544  0.015427125617861746  0.822276771068573  1.0000
  O   O1        1.0  0.24170708656311032  0.8610225319862365  0.21478466689586637  1.0000
  O   O2        1.0  0.8622488379478453  0.028715897351503372  0.45521751046180725  1.0000
  O   O3        1.0  0.1653110533952713  0.3297176957130432  0.061407603323459625  1.0000
  Ca  Ca3       1.0  0.7456934452056885  0.19501443207263944  0.22149814665317535  1.0000
  O   O4        1.0  0.334196001291275  0.4787312448024749  0.4000200629234314  1.0000
  O   O5        1.0  0.04421563819050789  0.5178849697113037  0.8171120285987854  1.0000
  O   O6        1.0  0.46612671017646784  0.932915449142456  0.6614385843276978  1.0000
  O   O7        1.0  0.6396993398666382  0.7479750514030455  0.01089068222790954  1.0000
