data_image152
_chemical_formula_structural       TiOCaO2CaOSiO7CaSiTi
_chemical_formula_sum              "Ti2 O11 Ca3 Si2"
_cell_length_a       4.957143116182512
_cell_length_b       5.668493332021555
_cell_length_c       10.947833061218262
_cell_angle_alpha    98.32666559574798
_cell_angle_beta     75.32771737384333
_cell_angle_gamma    115.50449427322303

_space_group_name_H-M_alt    "P 1"
_space_group_IT_number       1

loop_
  _space_group_symop_operation_xyz
  'x, y, z'

loop_
  _atom_site_type_symbol
  _atom_site_label
  _atom_site_symmetry_multiplicity
  _atom_site_fract_x
  _atom_site_fract_y
  _atom_site_fract_z
  _atom_site_occupancy
  Ti  Ti1       1.0  0.44505202770233143  0.9806514978408812  0.11751335114240646  1.0000
  O   O1        1.0  0.6264769434928894  0.33435991406440735  0.18432989716529846  1.0000
  Ca  Ca1       1.0  0.6536123156547546  0.3916020393371582  0.6481114029884338  1.0000
  O   O2        1.0  0.631348729133606  0.6423399448394775  0.8265292048454285  1.0000
  O   O3        1.0  0.45236775279045094  0.9609860777854918  0.7346524596214294  1.0000
  Ca  Ca2       1.0  0.7813159823417664  0.5336877703666687  0.9703419208526611  1.0000
  O   O4        1.0  0.2298593521118164  0.7956019043922424  0.9826607704162598  1.0000
  Si  Si1       1.0  0.6979490518569946  0.6434895992279053  0.25086626410484314  1.0000
  O   O5        1.0  0.7324807047843933  0.12353177368640898  0.9419592022895813  1.0000
  O   O6        1.0  0.21358653903007507  0.44412440061569214  0.6134957671165466  1.0000
  O   O7        1.0  0.6031250357627869  0.7657413482666016  0.1478707641363144  1.0000
  O   O8        1.0  0.47140032052993774  0.5985926985740662  0.38564491271972656  1.0000
  O   O9        1.0  0.6308279037475585  0.10103863477706908  0.48223647475242615  1.0000
  O   O10       1.0  0.0034224181436002363  0.7851371169090271  0.5499711036682129  1.0000
  O   O11       1.0  0.06286532431840894  0.8456517457962036  0.24955753982067108  1.0000
  Ca  Ca3       1.0  0.15817910432815552  0.15486198663711548  0.43490833044052124  1.0000
  Si  Si2       1.0  0.5212339162826537  0.8797500729560851  0.8572259545326233  1.0000
  Ti  Ti2       1.0  0.35870504379272455  0.780027151107788  0.5564859509468079  1.0000
