data_image472
_chemical_formula_structural       SiCaO
_chemical_formula_sum              "Si1 Ca1 O1"
_cell_length_a       3.4998845612782667
_cell_length_b       3.5151018654231563
_cell_length_c       5.402586936950684
_cell_angle_alpha    71.2205327158893
_cell_angle_beta     71.17271546177447
_cell_angle_gamma    60.196536799112714

_space_group_name_H-M_alt    "P 1"
_space_group_IT_number       1

loop_
  _space_group_symop_operation_xyz
  'x, y, z'

loop_
  _atom_site_type_symbol
  _atom_site_label
  _atom_site_symmetry_multiplicity
  _atom_site_fract_x
  _atom_site_fract_y
  _atom_site_fract_z
  _atom_site_occupancy
  Si  Si1       1.0  0.16638310253620148  0.7481281757354736  0.4557522237300873  1.0000
  Ca  Ca1       1.0  0.6581394076347351  0.23899465799331662  0.9851343035697937  1.0000
  O   O1        1.0  0.05585415661334991  0.6363992691040039  0.7931798100471497  1.0000
