data_image33
_chemical_formula_structural       OCa2TiO5TiOSi
_chemical_formula_sum              "O7 Ca2 Ti2 Si1"
_cell_length_a       3.7659343718678815
_cell_length_b       3.7624162283097737
_cell_length_c       9.662269592285156
_cell_angle_alpha    101.22440729995243
_cell_angle_beta     101.26844818757795
_cell_angle_gamma    89.9620746260921

_space_group_name_H-M_alt    "P 1"
_space_group_IT_number       1

loop_
  _space_group_symop_operation_xyz
  'x, y, z'

loop_
  _atom_site_type_symbol
  _atom_site_label
  _atom_site_symmetry_multiplicity
  _atom_site_fract_x
  _atom_site_fract_y
  _atom_site_fract_z
  _atom_site_occupancy
  O   O1        1.0  0.82663494348526  0.5107221603393555  0.9992066621780396  1.0000
  Ca  Ca1       1.0  0.29900413751602173  0.9829103350639343  0.9428906440734863  1.0000
  Ca  Ca2       1.0  0.10630673170089723  0.7907963991165161  0.5588619112968445  1.0000
  Ti  Ti1       1.0  0.9276310205459596  0.6106513142585754  0.2004079818725586  1.0000
  O   O2        1.0  0.7099635004997253  0.8940486907958984  0.76517653465271  1.0000
  O   O3        1.0  0.504115104675293  0.687334418296814  0.3532126545906067  1.0000
  O   O4        1.0  0.4141850769519806  0.0982297882437706  0.17292463779449463  1.0000
  O   O5        1.0  0.2097965031862259  0.39399436116218567  0.7652451395988464  1.0000
  O   O6        1.0  0.004188060760498047  0.18892401456832886  0.3533032536506653  1.0000
  Ti  Ti2       1.0  0.7093142867088318  0.39305579662323  0.7642592191696167  1.0000
  O   O7        1.0  0.5977811217308044  0.2821404337882996  0.5432414412498474  1.0000
  Si  Si1       1.0  0.5051048398017883  0.18983492255210876  0.35695502161979675  1.0000
