data_image256
_chemical_formula_structural       TiOTiCaSiO4SiO2CaO3
_chemical_formula_sum              "Ti2 O10 Ca2 Si2"
_cell_length_a       5.497288503671503
_cell_length_b       5.504946180490662
_cell_length_c       7.114965915679932
_cell_angle_alpha    104.23466277495211
_cell_angle_beta     104.29518636953554
_cell_angle_gamma    105.68771758995983

_space_group_name_H-M_alt    "P 1"
_space_group_IT_number       1

loop_
  _space_group_symop_operation_xyz
  'x, y, z'

loop_
  _atom_site_type_symbol
  _atom_site_label
  _atom_site_symmetry_multiplicity
  _atom_site_fract_x
  _atom_site_fract_y
  _atom_site_fract_z
  _atom_site_occupancy
  Ti  Ti1       1.0  0.7568013668060303  0.651106595993042  0.34111183881759644  1.0000
  O   O1        1.0  0.869143545627594  0.33765894174575806  0.2241211086511612  1.0000
  Ti  Ti2       1.0  0.7563458681106567  0.6504506468772888  0.8402963876724243  1.0000
  Ca  Ca1       1.0  0.4275032877922058  0.980114221572876  0.09102729707956317  1.0000
  Si  Si1       1.0  0.07631258666515348  0.33096987009048456  0.09074673801660538  1.0000
  O   O2        1.0  0.06919427216053005  0.5374130010604857  0.9574561715126038  1.0000
  O   O3        1.0  0.8254153728485107  0.5816891193389893  0.5908737778663635  1.0000
  O   O4        1.0  0.006337110884487627  0.028129555284976956  0.9330015778541565  1.0000
  O   O5        1.0  0.44375917315483093  0.7642729878425598  0.7240115404129028  1.0000
  Si  Si2       1.0  0.4368560016155243  0.9703866839408875  0.5910357236862183  1.0000
  O   O6        1.0  0.687239408493042  0.7199400663375854  0.09106268733739853  1.0000
  O   O7        1.0  0.5061790347099304  0.2728661894798279  0.7485228776931763  1.0000
  Ca  Ca2       1.0  0.08532901853322983  0.32212769985198975  0.5901328325271606  1.0000
  O   O8        1.0  0.6430439352989197  0.9637515544891357  0.45764032006263733  1.0000
  O   O9        1.0  0.13350613415241241  0.9001201391220093  0.4331209659576416  1.0000
  O   O10       1.0  0.37873974442481995  0.40052622556686396  0.24864338338375092  1.0000
