data_image513
_chemical_formula_structural       Ca2Si2TiCaTi2O2SiO3
_chemical_formula_sum              "Ca3 Si3 Ti3 O5"
_cell_length_a       4.027421703551171
_cell_length_b       4.5088358421290815
_cell_length_c       16.06313705444336
_cell_angle_alpha    97.62939200266555
_cell_angle_beta     90.51446598893955
_cell_angle_gamma    113.36359887389531

_space_group_name_H-M_alt    "P 1"
_space_group_IT_number       1

loop_
  _space_group_symop_operation_xyz
  'x, y, z'

loop_
  _atom_site_type_symbol
  _atom_site_label
  _atom_site_symmetry_multiplicity
  _atom_site_fract_x
  _atom_site_fract_y
  _atom_site_fract_z
  _atom_site_occupancy
  Ca  Ca1       1.0  0.7643553614616394  0.08389917761087418  0.02453095093369484  1.0000
  Ca  Ca2       1.0  0.6327311396598816  0.8024587631225586  0.4104844629764557  1.0000
  Si  Si1       1.0  0.7558624744415283  0.05177703872323036  0.7532920837402344  1.0000
  Si  Si2       1.0  0.9314483404159546  0.4114997982978821  0.298176109790802  1.0000
  Ti  Ti1       1.0  0.22092007100582123  0.9842769503593445  0.1937108337879181  1.0000
  Ca  Ca3       1.0  0.23100210726261133  0.9952725172042846  0.6296362280845642  1.0000
  Ti  Ti2       1.0  0.26574182510375977  0.08826904743909836  0.8377191424369812  1.0000
  Ti  Ti3       1.0  0.7590649127960205  0.5503864884376526  0.7417104840278625  1.0000
  O   O1        1.0  0.12576068937778473  0.7960438132286072  0.3000151515007019  1.0000
  O   O2        1.0  0.13424846529960632  0.8110719919204712  0.08813547343015671  1.0000
  Si  Si3       1.0  0.2556568682193756  0.5500996708869934  0.7581429481506348  1.0000
  O   O3        1.0  0.8966162800788879  0.35190290212631226  0.39474064111709595  1.0000
  O   O4        1.0  0.31622645258903503  0.18821333348751068  0.9513750672340393  1.0000
  O   O5        1.0  0.7952107191085815  0.14690975844860077  0.21104612946510315  1.0000
