data_image365
_chemical_formula_structural       TiOSiO2SiO2CaO3
_chemical_formula_sum              "Ti1 O8 Si2 Ca1"
_cell_length_a       5.6347442181572145
_cell_length_b       5.631016538933003
_cell_length_c       5.63988733291626
_cell_angle_alpha    106.4763718859702
_cell_angle_beta     106.56603138086824
_cell_angle_gamma    115.44477270529842

_space_group_name_H-M_alt    "P 1"
_space_group_IT_number       1

loop_
  _space_group_symop_operation_xyz
  'x, y, z'

loop_
  _atom_site_type_symbol
  _atom_site_label
  _atom_site_symmetry_multiplicity
  _atom_site_fract_x
  _atom_site_fract_y
  _atom_site_fract_z
  _atom_site_occupancy
  Ti  Ti1       1.0  0.18931461870670319  0.0949750617146492  0.6385074853897095  1.0000
  O   O1        1.0  0.27580326795578003  0.880886435508728  0.3371620774269104  1.0000
  Si  Si1       1.0  0.4392003118991852  0.8453276753425598  0.13808776438236237  1.0000
  O   O2        1.0  0.403438001871109  0.008796893060207367  0.9391800761222839  1.0000
  O   O3        1.0  0.8767659068107605  0.6096982955932617  0.46549248695373535  1.0000
  Si  Si2       1.0  0.689217209815979  0.5954310297966003  0.6384398937225342  1.0000
  O   O4        1.0  0.3284902572631836  0.40748780965805054  0.4659692347049713  1.0000
  O   O5        1.0  0.6739539504051208  0.40701860189437866  0.8102414011955261  1.0000
  Ca  Ca1       1.0  0.9391604661941528  0.34467080235481257  0.13792458176612854  1.0000
  O   O6        1.0  0.2759580612182617  0.4832890033721924  0.9394848346710205  1.0000
  O   O7        1.0  0.8771997094154358  0.9565850496292113  0.8102867603302002  1.0000
  O   O8        1.0  0.8012409210205078  0.00838792510330677  0.3364492952823639  1.0000
