data_image429
_chemical_formula_structural       OSiTiO2CaTiO5
_chemical_formula_sum              "O8 Si1 Ti2 Ca1"
_cell_length_a       4.734058166209112
_cell_length_b       4.747746353864212
_cell_length_c       6.472970008850098
_cell_angle_alpha    84.65041385660348
_cell_angle_beta     84.59297923577797
_cell_angle_gamma    79.86362655669119

_space_group_name_H-M_alt    "P 1"
_space_group_IT_number       1

loop_
  _space_group_symop_operation_xyz
  'x, y, z'

loop_
  _atom_site_type_symbol
  _atom_site_label
  _atom_site_symmetry_multiplicity
  _atom_site_fract_x
  _atom_site_fract_y
  _atom_site_fract_z
  _atom_site_occupancy
  O   O1        1.0  0.7412427067756653  0.010250608436763287  0.40077957510948176  1.0000
  Si  Si1       1.0  0.06865932047367097  0.33570829033851624  0.9015309214591979  1.0000
  Ti  Ti1       1.0  0.6281090378761292  0.8961575627326965  0.16850334405899048  1.0000
  O   O2        1.0  0.8687480688095093  0.5504066944122314  0.0966133624315262  1.0000
  O   O3        1.0  0.26715442538261414  0.12147755175828932  0.7062175273895264  1.0000
  Ca  Ca1       1.0  0.06722790002822876  0.3357234299182892  0.4017240107059478  1.0000
  Ti  Ti2       1.0  0.5067943334579468  0.7764422297477721  0.6344889998435974  1.0000
  O   O4        1.0  0.853664219379425  0.5354560613632202  0.7060374021530151  1.0000
  O   O5        1.0  0.39375782012939453  0.6612613797187805  0.4020093083381652  1.0000
  O   O6        1.0  0.8232084512710571  0.0918264165520668  0.9519956707954406  1.0000
  O   O7        1.0  0.31349268555641174  0.5800169706344604  0.8527320623397826  1.0000
  O   O8        1.0  0.2819727957248688  0.13513939082622528  0.09720545262098311  1.0000
