data_image369
_chemical_formula_structural       Si2CaOTiCa2OTi2O10
_chemical_formula_sum              "Si2 Ca3 O12 Ti3"
_cell_length_a       5.681476024994493
_cell_length_b       6.151058511485874
_cell_length_c       8.191126823425293
_cell_angle_alpha    95.4834766709374
_cell_angle_beta     93.23739611680686
_cell_angle_gamma    80.83836244478775

_space_group_name_H-M_alt    "P 1"
_space_group_IT_number       1

loop_
  _space_group_symop_operation_xyz
  'x, y, z'

loop_
  _atom_site_type_symbol
  _atom_site_label
  _atom_site_symmetry_multiplicity
  _atom_site_fract_x
  _atom_site_fract_y
  _atom_site_fract_z
  _atom_site_occupancy
  Si  Si1       1.0  0.4416384398937226  0.19149611890316012  0.6114768385887146  1.0000
  Si  Si2       1.0  0.7598411440849305  0.7814376950263977  0.5977680087089539  1.0000
  Ca  Ca1       1.0  0.3641068935394287  0.2683672606945038  0.16974210739135742  1.0000
  O   O1        1.0  0.6528166532516481  0.9538493156433107  0.09204876422882081  1.0000
  Ti  Ti1       1.0  0.8688231706619264  0.14527779817581177  0.07124554365873337  1.0000
  Ca  Ca2       1.0  0.42107889056205755  0.7441602945327759  0.9081816077232361  1.0000
  Ca  Ca3       1.0  0.8772243857383729  0.6675369143486023  0.23259128630161285  1.0000
  O   O2        1.0  0.9140621423721315  0.92882639169693  0.5046446919441223  1.0000
  Ti  Ti2       1.0  0.9651946425437928  0.4090734124183655  0.8564994931221008  1.0000
  Ti  Ti3       1.0  0.8642199635505677  0.2558403015136719  0.498595654964447  1.0000
  O   O3        1.0  0.9965317845344545  0.2416028380393982  0.27321547269821167  1.0000
  O   O4        1.0  0.17227256298065186  0.3062305152416229  0.6535985469818115  1.0000
  O   O5        1.0  0.7367827296257019  0.5724319219589233  0.4658872187137604  1.0000
  O   O6        1.0  0.12852704524993896  0.08891282975673677  0.9509869813919067  1.0000
  O   O7        1.0  0.847972333431244  0.7014702558517456  0.7775572538375854  1.0000
  O   O8        1.0  0.4841638803482056  0.9243950247764589  0.6421851515769958  1.0000
  O   O9        1.0  0.15503528714179993  0.5484843850135803  0.025310892611742027  1.0000
  O   O10       1.0  0.5049808621406555  0.2154222279787064  0.4231554865837097  1.0000
  O   O11       1.0  0.6902043223381042  0.42722672224044805  0.04059164226055146  1.0000
  O   O12       1.0  0.6625903248786926  0.29762122035026556  0.7197454571723938  1.0000
