data_image111
_chemical_formula_structural       CaTiCaTiO4
_chemical_formula_sum              "Ca2 Ti2 O4"
_cell_length_a       3.257251573774364
_cell_length_b       3.995681554560333
_cell_length_c       7.643554210662842
_cell_angle_alpha    89.9551828018583
_cell_angle_beta     90.02504198016895
_cell_angle_gamma    89.83748498551851

_space_group_name_H-M_alt    "P 1"
_space_group_IT_number       1

loop_
  _space_group_symop_operation_xyz
  'x, y, z'

loop_
  _atom_site_type_symbol
  _atom_site_label
  _atom_site_symmetry_multiplicity
  _atom_site_fract_x
  _atom_site_fract_y
  _atom_site_fract_z
  _atom_site_occupancy
  Ca  Ca1       1.0  0.44153290987014765  0.5081374645233154  0.9434312582015991  1.0000
  Ti  Ti1       1.0  0.9416264295578002  0.008009853772819042  0.20167171955108643  1.0000
  Ca  Ca2       1.0  0.9419261217117308  0.008272470906376839  0.6397854089736938  1.0000
  Ti  Ti2       1.0  0.4414746761322021  0.5081011652946472  0.3812977373600006  1.0000
  O   O1        1.0  0.9408105015754699  0.00808408111333847  0.9360924363136292  1.0000
  O   O2        1.0  0.9413151741027831  0.508216917514801  0.19223277270793915  1.0000
  O   O3        1.0  0.44173830747604365  0.5083202719688416  0.6469558477401733  1.0000
  O   O4        1.0  0.4417183101177215  0.008346622809767723  0.39059656858444214  1.0000
