data_image81
_chemical_formula_structural       SiCaOCaTi2O4SiO5
_chemical_formula_sum              "Si2 Ca2 O10 Ti2"
_cell_length_a       5.500274170573908
_cell_length_b       5.502246956005049
_cell_length_c       7.1124348640441895
_cell_angle_alpha    104.21892612644999
_cell_angle_beta     104.2238093256113
_cell_angle_gamma    105.83588383449768

_space_group_name_H-M_alt    "P 1"
_space_group_IT_number       1

loop_
  _space_group_symop_operation_xyz
  'x, y, z'

loop_
  _atom_site_type_symbol
  _atom_site_label
  _atom_site_symmetry_multiplicity
  _atom_site_fract_x
  _atom_site_fract_y
  _atom_site_fract_z
  _atom_site_occupancy
  Si  Si1       1.0  0.39929020404815674  0.5458866953849792  0.35412028431892395  1.0000
  Ca  Ca1       1.0  0.04782016575336456  0.8975829482078552  0.35394999384880066  1.0000
  O   O1        1.0  0.6489596366882324  0.2970848083496094  0.8539679646492004  1.0000
  Ca  Ca2       1.0  0.3890312612056732  0.5563404560089111  0.8539581894874573  1.0000
  Ti  Ti1       1.0  0.7184165716171265  0.22683556377887726  0.6040237545967102  1.0000
  Ti  Ti2       1.0  0.7188540697097778  0.22665053606033325  0.10410515218973157  1.0000
  O   O2        1.0  0.40553414821624756  0.33878812193870544  0.48668795824050903  1.0000
  O   O3        1.0  0.031982302665710456  0.11487662792205812  0.7215680480003357  1.0000
  O   O4        1.0  0.829903781414032  0.9134857654571533  0.9867003560066223  1.0000
  O   O5        1.0  0.7884734272956848  0.15719476342201233  0.3540516197681427  1.0000
  Si  Si2       1.0  0.037845365703105927  0.9078184962272644  0.8542752265930176  1.0000
  O   O6        1.0  0.0972563028335571  0.4767400920391082  0.19475825130939484  1.0000
  O   O7        1.0  0.6070281267166138  0.5403171181678772  0.2215864211320877  1.0000
  O   O8        1.0  0.9683295488357544  0.6057978868484497  0.6958589553833008  1.0000
  O   O9        1.0  0.4694114029407501  0.8485873937606812  0.5128671526908875  1.0000
  O   O10       1.0  0.3402571976184845  0.9774708151817322  0.013593623414635658  1.0000
