data_image485
_chemical_formula_structural       CaSi2O
_chemical_formula_sum              "Ca1 Si2 O1"
_cell_length_a       3.818528000397619
_cell_length_b       3.820391034901904
_cell_length_c       5.641290664672852
_cell_angle_alpha    89.92872264725776
_cell_angle_beta     90.1284783625879
_cell_angle_gamma    120.09330614995372

_space_group_name_H-M_alt    "P 1"
_space_group_IT_number       1

loop_
  _space_group_symop_operation_xyz
  'x, y, z'

loop_
  _atom_site_type_symbol
  _atom_site_label
  _atom_site_symmetry_multiplicity
  _atom_site_fract_x
  _atom_site_fract_y
  _atom_site_fract_z
  _atom_site_occupancy
  Ca  Ca1       1.0  0.802720844745636  0.6436806917190553  0.38571897149086  1.0000
  Si  Si1       1.0  0.13654123246669772  0.3100879788398743  0.8307886123657227  1.0000
  Si  Si2       1.0  0.4697831273078919  0.9771030545234681  0.9825313091278076  1.0000
  O   O1        1.0  0.13627652823925018  0.3099154233932495  0.5336701273918152  1.0000
