data_image459
_chemical_formula_structural       TiCaSi2O6TiO4CaTiO3
_chemical_formula_sum              "Ti3 Ca2 Si2 O13"
_cell_length_a       6.333371814268248
_cell_length_b       5.948569509511426
_cell_length_c       7.832096099853516
_cell_angle_alpha    68.33740196254206
_cell_angle_beta     74.87510897449765
_cell_angle_gamma    78.68655313530233

_space_group_name_H-M_alt    "P 1"
_space_group_IT_number       1

loop_
  _space_group_symop_operation_xyz
  'x, y, z'

loop_
  _atom_site_type_symbol
  _atom_site_label
  _atom_site_symmetry_multiplicity
  _atom_site_fract_x
  _atom_site_fract_y
  _atom_site_fract_z
  _atom_site_occupancy
  Ti  Ti1       1.0  0.11245939135551453  0.3618994951248169  0.4975420534610749  1.0000
  Ca  Ca1       1.0  0.6391372680664061  0.16632653772830963  0.33449801802635193  1.0000
  Si  Si1       1.0  0.9906505942344666  0.3873552083969117  0.9334049224853517  1.0000
  Si  Si2       1.0  0.5902911424636841  0.5618833899497986  0.4914493560791016  1.0000
  O   O1        1.0  0.42002251744270325  0.8543268442153932  0.9898106455802919  1.0000
  O   O2        1.0  0.4721500277519226  0.2339891940355301  0.05904800072312356  1.0000
  O   O3        1.0  0.813736081123352  0.3759344220161438  0.45923119783401495  1.0000
  O   O4        1.0  0.40434008836746216  0.385233610868454  0.5262075662612915  1.0000
  O   O5        1.0  0.7507113814353943  0.522210717201233  0.9935258626937867  1.0000
  O   O6        1.0  0.00831511802971363  0.13505519926548004  0.11470369249582292  1.0000
  Ti  Ti2       1.0  0.4530244469642639  0.5788739323616028  0.9209925532341005  1.0000
  O   O7        1.0  0.15360283851623535  0.5917854309082031  0.8991622328758241  1.0000
  O   O8        1.0  0.2352435141801834  0.12603433430194858  0.4004747867584229  1.0000
  O   O9        1.0  0.06787018477916716  0.7449080348014833  0.42409184575080877  1.0000
  O   O10       1.0  0.576183319091797  0.7988126873970032  0.3016160726547241  1.0000
  Ca  Ca2       1.0  0.8083677887916565  0.8947238326072693  0.9902953505516053  1.0000
  Ti  Ti3       1.0  0.2831271290779113  0.967306673526764  0.20341885089874265  1.0000
  O   O11       1.0  0.5713635087013245  0.660893201828003  0.6647340059280396  1.0000
  O   O12       1.0  0.9987196922302246  0.27567797899246216  0.7684127092361451  1.0000
  O   O13       1.0  0.14101807773113248  0.6500362753868103  0.267240047454834  1.0000
