data_image44
_chemical_formula_structural       O2CaSi2OTiO4
_chemical_formula_sum              "O7 Ca1 Si2 Ti1"
_cell_length_a       4.63994659543836
_cell_length_b       5.393496883597973
_cell_length_c       5.393718719482422
_cell_angle_alpha    102.66230558804166
_cell_angle_beta     96.92301432226154
_cell_angle_gamma    96.89619821192869

_space_group_name_H-M_alt    "P 1"
_space_group_IT_number       1

loop_
  _space_group_symop_operation_xyz
  'x, y, z'

loop_
  _atom_site_type_symbol
  _atom_site_label
  _atom_site_symmetry_multiplicity
  _atom_site_fract_x
  _atom_site_fract_y
  _atom_site_fract_z
  _atom_site_occupancy
  O   O1        1.0  0.9695891737937927  0.25281375646591187  0.5254413485527039  1.0000
  O   O2        1.0  0.9319615364074707  0.9610477685928344  0.9121282696723937  1.0000
  Ca  Ca1       1.0  0.6940803527832031  0.34005260467529297  0.19026951491832733  1.0000
  Si  Si1       1.0  0.11443021893501279  0.8343616724014281  0.12250521779060362  1.0000
  Si  Si2       1.0  0.2743978202342987  0.40751093626022333  0.6961421370506287  1.0000
  O   O3        1.0  0.49213919043540955  0.20574896037578583  0.7699968814849854  1.0000
  Ti  Ti1       1.0  0.6946867108345032  0.9473793506622313  0.583400309085846  1.0000
  O   O4        1.0  0.896198570728302  0.7610184550285339  0.32436978816986084  1.0000
  O   O5        1.0  0.4190515875816345  0.0054911039769649506  0.277649849653244  1.0000
  O   O6        1.0  0.4573051333427429  0.617857038974762  0.5688760876655579  1.0000
  O   O7        1.0  0.19481481611728668  0.5511820912361144  0.9792151451110839  1.0000
