data_image5
_chemical_formula_structural       OSiTiCaO4SiO3
_chemical_formula_sum              "O8 Si2 Ti1 Ca1"
_cell_length_a       5.339328954559808
_cell_length_b       5.337364280167703
_cell_length_c       6.5100250244140625
_cell_angle_alpha    89.91209113612646
_cell_angle_beta     90.03747975472038
_cell_angle_gamma    119.98021068824883

_space_group_name_H-M_alt    "P 1"
_space_group_IT_number       1

loop_
  _space_group_symop_operation_xyz
  'x, y, z'

loop_
  _atom_site_type_symbol
  _atom_site_label
  _atom_site_symmetry_multiplicity
  _atom_site_fract_x
  _atom_site_fract_y
  _atom_site_fract_z
  _atom_site_occupancy
  O   O1        1.0  0.8756216764450072  0.2980978488922119  0.988365888595581  1.0000
  Si  Si1       1.0  0.8757157325744628  0.29808712005615234  0.7414149045944214  1.0000
  Ti  Ti1       1.0  0.5430967807769775  0.63180011510849  0.47942855954170227  1.0000
  Ca  Ca1       1.0  0.5427258014678955  0.6311818957328796  0.9794360399246216  1.0000
  O   O2        1.0  0.209299236536026  0.9641188979148866  0.9703812003135681  1.0000
  O   O3        1.0  0.3780660927295685  0.7959802150726318  0.2935324013233185  1.0000
  O   O4        1.0  0.2133011668920517  0.467077225446701  0.6656699180603027  1.0000
  O   O5        1.0  0.37858372926712036  0.3022737205028534  0.29322993755340576  1.0000
  Si  Si2       1.0  0.20977278053760537  0.964239001274109  0.21731166541576385  1.0000
  O   O6        1.0  0.706782877445221  0.9602724313735962  0.6653653979301453  1.0000
  O   O7        1.0  0.8721729516983031  0.7958694100379944  0.2933938205242157  1.0000
  O   O8        1.0  0.7076504826545715  0.4669064581394195  0.665439784526825  1.0000
