data_image300
_chemical_formula_structural       O3CaSiTiOSiO4
_chemical_formula_sum              "O8 Ca1 Si2 Ti1"
_cell_length_a       5.077522521113365
_cell_length_b       5.075717301866732
_cell_length_c       6.803699493408203
_cell_angle_alpha    91.12248940581135
_cell_angle_beta     91.09470414936422
_cell_angle_gamma    64.59482474297953

_space_group_name_H-M_alt    "P 1"
_space_group_IT_number       1

loop_
  _space_group_symop_operation_xyz
  'x, y, z'

loop_
  _atom_site_type_symbol
  _atom_site_label
  _atom_site_symmetry_multiplicity
  _atom_site_fract_x
  _atom_site_fract_y
  _atom_site_fract_z
  _atom_site_occupancy
  O   O1        1.0  0.8454327583312988  0.9023320674896239  0.8230428099632262  1.0000
  O   O2        1.0  0.3317155838012696  0.39117568731307983  0.30236363410949707  1.0000
  O   O3        1.0  0.8276233077049255  0.3855185806751251  0.16521650552749634  1.0000
  Ca  Ca1       1.0  0.11845450103282928  0.17559342086315155  0.8734693527221679  1.0000
  Si  Si1       1.0  0.471754252910614  0.5290191173553467  0.1441473364830017  1.0000
  Ti  Ti1       1.0  0.11831732839345932  0.1755552887916565  0.3735808134078979  1.0000
  O   O4        1.0  0.9083979725837708  0.46544826030731207  0.5822175145149231  1.0000
  Si  Si2       1.0  0.7646119594573976  0.8214901089668274  0.6027314066886902  1.0000
  O   O5        1.0  0.40915176272392273  0.9647971391677856  0.5819129347801208  1.0000
  O   O6        1.0  0.9038434028625488  0.9601739645004272  0.4445750713348388  1.0000
  O   O7        1.0  0.32823598384857183  0.8852721452713012  0.16491077840328217  1.0000
  O   O8        1.0  0.39113441109657293  0.448763221502304  0.9235153198242186  1.0000
