data_image353
_chemical_formula_structural       TiCaO3SiO3TiO2
_chemical_formula_sum              "Ti2 Ca1 O8 Si1"
_cell_length_a       5.750739220920991
_cell_length_b       5.756554169473957
_cell_length_c       5.7612762451171875
_cell_angle_alpha    107.42035781616349
_cell_angle_beta     107.3359991632865
_cell_angle_gamma    113.61271917999642

_space_group_name_H-M_alt    "P 1"
_space_group_IT_number       1

loop_
  _space_group_symop_operation_xyz
  'x, y, z'

loop_
  _atom_site_type_symbol
  _atom_site_label
  _atom_site_symmetry_multiplicity
  _atom_site_fract_x
  _atom_site_fract_y
  _atom_site_fract_z
  _atom_site_occupancy
  Ti  Ti1       1.0  0.620976448059082  0.4660325050354004  0.39563286304473877  1.0000
  Ca  Ca1       1.0  0.37118303775787354  0.7176569700241089  0.8964501023292542  1.0000
  O   O1        1.0  0.11783142387866974  0.7890275120735168  0.569501519203186  1.0000
  O   O2        1.0  0.8340059518814087  0.3955370783805848  0.6809819340705872  1.0000
  O   O3        1.0  0.7694512605667114  0.7900682687759399  0.22243700921535492  1.0000
  Si  Si1       1.0  0.12123365700244904  0.9677280783653259  0.39610403776168823  1.0000
  O   O4        1.0  0.29834595322608953  0.9709981083869935  0.22257272899150848  1.0000
  O   O5        1.0  0.2634192109107971  0.39509648084640503  0.10966121405363083  1.0000
  O   O6        1.0  0.6932356953620911  0.2530929744243622  0.11058662086725235  1.0000
  Ti  Ti2       1.0  0.8714292049407959  0.21720801293849948  0.896385133266449  1.0000
  O   O7        1.0  0.29814624786376953  0.3187439441680909  0.5685049891471863  1.0000
  O   O8        1.0  0.6928150653839111  0.8250807523727417  0.6825537085533142  1.0000
