data_image238
_chemical_formula_structural       OSiTiO7SiCa
_chemical_formula_sum              "O8 Si2 Ti1 Ca1"
_cell_length_a       5.639027215017024
_cell_length_b       5.641602178848294
_cell_length_c       5.649241924285889
_cell_angle_alpha    106.53722118437278
_cell_angle_beta     106.52694198525666
_cell_angle_gamma    115.35454635724287

_space_group_name_H-M_alt    "P 1"
_space_group_IT_number       1

loop_
  _space_group_symop_operation_xyz
  'x, y, z'

loop_
  _atom_site_type_symbol
  _atom_site_label
  _atom_site_symmetry_multiplicity
  _atom_site_fract_x
  _atom_site_fract_y
  _atom_site_fract_z
  _atom_site_occupancy
  O   O1        1.0  0.18434874713420868  0.25173354148864746  0.7093262672424316  1.0000
  Si  Si1       1.0  0.822481632232666  0.08924325555562973  0.5105355978012085  1.0000
  Ti  Ti1       1.0  0.5720353126525879  0.33831411600112915  0.010427547618746718  1.0000
  O   O2        1.0  0.05708293616771697  0.6512547135353088  0.1833315938711166  1.0000
  O   O3        1.0  0.26058530807495117  0.8547850251197815  0.8381984829902649  1.0000
  O   O4        1.0  0.7864440083503723  0.25252676010131836  0.31177818775176996  1.0000
  O   O5        1.0  0.6594783663749695  0.7277335524559021  0.3114168345928192  1.0000
  O   O6        1.0  0.25969821214675903  0.20062103867530823  0.18321016430854797  1.0000
  O   O7        1.0  0.7112991809844971  0.6517057418823242  0.8379296660423279  1.0000
  O   O8        1.0  0.6592614054679871  0.12533394992351532  0.7094653844833374  1.0000
  Si  Si2       1.0  0.07305860519409181  0.8395928144454956  0.010709248483181  1.0000
  Ca  Ca1       1.0  0.3225161135196686  0.5896256566047668  0.5108517408370972  1.0000
