data_image65
_chemical_formula_structural       SiCaOTiSiTiO9Ca
_chemical_formula_sum              "Si2 Ca2 O10 Ti2"
_cell_length_a       5.181927000601087
_cell_length_b       5.335865513459526
_cell_length_c       8.48931884765625
_cell_angle_alpha    105.69875415423073
_cell_angle_beta     107.11612133596422
_cell_angle_gamma    104.39863505905062

_space_group_name_H-M_alt    "P 1"
_space_group_IT_number       1

loop_
  _space_group_symop_operation_xyz
  'x, y, z'

loop_
  _atom_site_type_symbol
  _atom_site_label
  _atom_site_symmetry_multiplicity
  _atom_site_fract_x
  _atom_site_fract_y
  _atom_site_fract_z
  _atom_site_occupancy
  Si  Si1       1.0  0.4538277387619018  0.301861822605133  0.6986266374588013  1.0000
  Ca  Ca1       1.0  0.8094732761383057  0.8071163296699524  0.6166142821311951  1.0000
  O   O1        1.0  0.47185865044593805  0.8089774250984192  0.36407729983329773  1.0000
  Ti  Ti1       1.0  0.7825583219528198  0.17756065726280212  0.38677603006362915  1.0000
  Si  Si2       1.0  0.1104619652032852  0.6890972256660461  0.2921611964702606  1.0000
  Ti  Ti2       1.0  0.7744638323783875  0.002472579013556242  0.9871436953544617  1.0000
  O   O2        1.0  0.10200437158346176  0.17813022434711456  0.5879712104797363  1.0000
  O   O3        1.0  0.5472997426986694  0.08890634775161743  0.7940725088119507  1.0000
  O   O4        1.0  0.6197749376296997  0.3435267210006714  0.5630987286567688  1.0000
  O   O5        1.0  0.9926789999008178  0.5680870413780211  0.42877471446990967  1.0000
  O   O6        1.0  0.9432128071784972  0.8992674350738524  0.23829047381877894  1.0000
  O   O7        1.0  0.5345093011856079  0.5982547402381897  0.8629550933837891  1.0000
  O   O8        1.0  0.012330777011811733  0.41770637035369873  0.11277510970830919  1.0000
  O   O9        1.0  0.5732865333557129  0.11083587259054184  0.1595492660999298  1.0000
  O   O10       1.0  0.04457866027951236  0.9802832603454589  0.9101030230522156  1.0000
  Ca  Ca2       1.0  0.42286077141761774  0.43593695759773254  0.07310400903224945  1.0000
