data_image216
_chemical_formula_structural       TiCaTi2O2CaO3SiO5
_chemical_formula_sum              "Ti3 Ca2 O10 Si1"
_cell_length_a       5.5990720605951845
_cell_length_b       5.605148160516475
_cell_length_c       7.241453170776367
_cell_angle_alpha    104.3303056519025
_cell_angle_beta     104.2312407464384
_cell_angle_gamma    105.58094528897911

_space_group_name_H-M_alt    "P 1"
_space_group_IT_number       1

loop_
  _space_group_symop_operation_xyz
  'x, y, z'

loop_
  _atom_site_type_symbol
  _atom_site_label
  _atom_site_symmetry_multiplicity
  _atom_site_fract_x
  _atom_site_fract_y
  _atom_site_fract_z
  _atom_site_occupancy
  Ti  Ti1       1.0  0.4758293330669403  0.7366520762443542  0.6063407063484192  1.0000
  Ca  Ca1       1.0  0.15213452279567719  0.06236455217003822  0.36097902059555054  1.0000
  Ti  Ti2       1.0  0.4780130982398987  0.7384721040725708  0.11368356645107272  1.0000
  Ti  Ti3       1.0  0.16058671474456787  0.05340233817696571  0.8606755137443542  1.0000
  O   O1        1.0  0.7865456342697144  0.6205323338508606  0.22785037755966187  1.0000
  O   O2        1.0  0.4106158912181854  0.8034911155700684  0.360563725233078  1.0000
  Ca  Ca2       1.0  0.8017464280128479  0.4126102030277252  0.8607645630836487  1.0000
  O   O3        1.0  0.09745489805936816  0.4888391196727753  0.5158069133758545  1.0000
  O   O4        1.0  0.5413624048233032  0.6727339625358582  0.860179603099823  1.0000
  O   O5        1.0  0.16247354447841644  0.8364579081535339  0.010449346154928239  1.0000
  Si  Si1       1.0  0.7966610193252563  0.4174351692199707  0.36020755767822266  1.0000
  O   O6        1.0  0.8381230235099792  0.9899550676345826  0.6927211284637451  1.0000
  O   O7        1.0  0.22492748498916626  0.37692496180534363  0.02839744091033937  1.0000
  O   O8        1.0  0.37807661294937134  0.0524279959499836  0.711127281188965  1.0000
  O   O9        1.0  0.59351646900177  0.42797636985778814  0.4926602244377136  1.0000
  O   O10       1.0  0.7271226048469543  0.11681630462408066  0.2053269594907761  1.0000
