data_image54
_chemical_formula_structural       CaSiO3
_chemical_formula_sum              "Ca1 Si1 O3"
_cell_length_a       3.606631082996132
_cell_length_b       3.6107913934814455
_cell_length_c       3.609818458557129
_cell_angle_alpha    89.98155416269857
_cell_angle_beta     89.991212051193
_cell_angle_gamma    89.99966782519033

_space_group_name_H-M_alt    "P 1"
_space_group_IT_number       1

loop_
  _space_group_symop_operation_xyz
  'x, y, z'

loop_
  _atom_site_type_symbol
  _atom_site_label
  _atom_site_symmetry_multiplicity
  _atom_site_fract_x
  _atom_site_fract_y
  _atom_site_fract_z
  _atom_site_occupancy
  Ca  Ca1       1.0  0.9572005867958069  0.25357502698898315  0.24161702394485474  1.0000
  Si  Si1       1.0  0.4571296274662018  0.7532326579093932  0.7413095831871033  1.0000
  O   O1        1.0  0.4568865895271301  0.25370919704437256  0.7415328621864319  1.0000
  O   O2        1.0  0.9568105936050415  0.7534445524215698  0.7416513562202454  1.0000
  O   O3        1.0  0.4568553566932678  0.753758430480957  0.24206754565238953  1.0000
