data_image594
_chemical_formula_structural       CaSiO2TiO4
_chemical_formula_sum              "Ca1 Si1 O6 Ti1"
_cell_length_a       4.212036396436938
_cell_length_b       5.122619227257764
_cell_length_c       5.138398170471191
_cell_angle_alpha    119.86289351006363
_cell_angle_beta     90.1860158687728
_cell_angle_gamma    90.09693656459996

_space_group_name_H-M_alt    "P 1"
_space_group_IT_number       1

loop_
  _space_group_symop_operation_xyz
  'x, y, z'

loop_
  _atom_site_type_symbol
  _atom_site_label
  _atom_site_symmetry_multiplicity
  _atom_site_fract_x
  _atom_site_fract_y
  _atom_site_fract_z
  _atom_site_occupancy
  Ca  Ca1       1.0  0.7840035557746887  0.2835950553417206  0.817081868648529  1.0000
  Si  Si1       1.0  0.7833114266395569  0.6167248487472534  0.4833777844905853  1.0000
  O   O1        1.0  0.5463640093803406  0.8772665858268738  0.800177276134491  1.0000
  O   O2        1.0  0.020843185484409332  0.8821542859077454  0.43147253990173334  1.0000
  Ti  Ti1       1.0  0.28372257947921753  0.9491467475891113  0.14969834685325614  1.0000
  O   O3        1.0  0.019904304295778275  0.6719911694526671  0.8013279438018799  1.0000
  O   O4        1.0  0.5458428263664246  0.6674870848655701  0.21841505169868466  1.0000
  O   O5        1.0  0.5475834608078003  0.2976237535476684  0.4286506175994873  1.0000
  O   O6        1.0  0.02142232656478882  0.30000185966491694  0.22068992257118222  1.0000
