data_image310
_chemical_formula_structural       CaOTiSiO2TiOSiO4CaO2
_chemical_formula_sum              "Ca2 O10 Ti2 Si2"
_cell_length_a       5.5022760191357465
_cell_length_b       5.504769890131184
_cell_length_c       7.127885818481445
_cell_angle_alpha    104.22674131774706
_cell_angle_beta     104.28234517079802
_cell_angle_gamma    105.70092078759022

_space_group_name_H-M_alt    "P 1"
_space_group_IT_number       1

loop_
  _space_group_symop_operation_xyz
  'x, y, z'

loop_
  _atom_site_type_symbol
  _atom_site_label
  _atom_site_symmetry_multiplicity
  _atom_site_fract_x
  _atom_site_fract_y
  _atom_site_fract_z
  _atom_site_occupancy
  Ca  Ca1       1.0  0.04623976722359657  0.6818556785583496  0.8838137984275818  1.0000
  O   O1        1.0  0.02986702136695385  0.8992627263069153  0.2513072192668915  1.0000
  Ti  Ti1       1.0  0.7159937620162964  0.011148683726787567  0.6333260536193848  1.0000
  Si  Si1       1.0  0.03517385944724083  0.6917733550071716  0.383406400680542  1.0000
  O   O2        1.0  0.09490562975406647  0.260555624961853  0.7247033715248108  1.0000
  O   O3        1.0  0.9658549427986145  0.38911697268486023  0.22511596977710727  1.0000
  Ti  Ti2       1.0  0.7167336344718933  0.010817453265190125  0.13351650536060333  1.0000
  O   O4        1.0  0.33779481053352356  0.7617580890655518  0.5424959659576416  1.0000
  Si  Si2       1.0  0.3974810540676117  0.33051544427871704  0.8837152719497681  1.0000
  O   O5        1.0  0.466559499502182  0.6324326992034912  0.04220832884311676  1.0000
  O   O6        1.0  0.8283914923667908  0.6980502009391785  0.5164058804512024  1.0000
  O   O7        1.0  0.40337464213371277  0.12273523211479188  0.015989255160093307  1.0000
  O   O8        1.0  0.7861344218254089  0.9413190484046936  0.8836249709129333  1.0000
  Ca  Ca2       1.0  0.38705068826675415  0.3402535617351532  0.3835499584674835  1.0000
  O   O9        1.0  0.64663165807724  0.0806700587272644  0.3836801052093506  1.0000
  O   O10       1.0  0.6047093272209167  0.3243165910243988  0.750985324382782  1.0000
