data_image144
_chemical_formula_structural       SiCaOSiOTiO4
_chemical_formula_sum              "Si2 Ca1 O6 Ti1"
_cell_length_a       4.937551086382121
_cell_length_b       4.95913278598694
_cell_length_c       5.5032243728637695
_cell_angle_alpha    93.93038708218936
_cell_angle_beta     97.17157812465793
_cell_angle_gamma    101.87218257533114

_space_group_name_H-M_alt    "P 1"
_space_group_IT_number       1

loop_
  _space_group_symop_operation_xyz
  'x, y, z'

loop_
  _atom_site_type_symbol
  _atom_site_label
  _atom_site_symmetry_multiplicity
  _atom_site_fract_x
  _atom_site_fract_y
  _atom_site_fract_z
  _atom_site_occupancy
  Si  Si1       1.0  0.6772742867469788  0.5567688345909119  0.3803650140762329  1.0000
  Ca  Ca1       1.0  0.22075769305229187  0.004296656697988511  0.5441736578941345  1.0000
  O   O1        1.0  0.4355620741844177  0.8753281831741333  0.8839496970176697  1.0000
  Si  Si2       1.0  0.7292593121528625  0.027222866192460064  0.049775879830121994  1.0000
  O   O2        1.0  0.3548396825790405  0.6064292788505554  0.337130069732666  1.0000
  Ti  Ti1       1.0  0.1141445264220238  0.6005720496177674  0.9657118916511536  1.0000
  O   O3        1.0  0.9792081713676454  0.19746363162994385  0.9128263592720032  1.0000
  O   O4        1.0  0.860294759273529  0.7738875150680543  0.18835559487342834  1.0000
  O   O5        1.0  0.6730683445930481  0.22814773023128512  0.2930390536785126  1.0000
  O   O6        1.0  0.8740466833114624  0.6521178483963013  0.644634485244751  1.0000
