data_image60
_chemical_formula_structural       Ca2TiSiOTiOSiO3CaO6
_chemical_formula_sum              "Ca3 Ti2 Si2 O11"
_cell_length_a       6.050172529962302
_cell_length_b       6.47572421182072
_cell_length_c       7.752506256103516
_cell_angle_alpha    106.88359977860098
_cell_angle_beta     106.21167376526576
_cell_angle_gamma    105.91983411896804

_space_group_name_H-M_alt    "P 1"
_space_group_IT_number       1

loop_
  _space_group_symop_operation_xyz
  'x, y, z'

loop_
  _atom_site_type_symbol
  _atom_site_label
  _atom_site_symmetry_multiplicity
  _atom_site_fract_x
  _atom_site_fract_y
  _atom_site_fract_z
  _atom_site_occupancy
  Ca  Ca1       1.0  0.24801425635814667  0.896598756313324  0.823401689529419  1.0000
  Ca  Ca2       1.0  0.8284818530082703  0.8431422710418701  0.08514483273029327  1.0000
  Ti  Ti1       1.0  0.6791406869888306  0.9525098204612733  0.6684661507606506  1.0000
  Si  Si1       1.0  0.029432877898216248  0.30210208892822266  0.5042064785957336  1.0000
  O   O1        1.0  0.11572134494781494  0.15130561590194702  0.35069969296455383  1.0000
  Ti  Ti2       1.0  0.32876056432724  0.5930824875831604  0.17280367016792297  1.0000
  O   O2        1.0  0.4210875928401947  0.8098732233047485  0.09203139692544937  1.0000
  Si  Si2       1.0  0.7441615462303162  0.3425847291946411  0.13570617139339447  1.0000
  O   O3        1.0  0.5205732583999634  0.689140260219574  0.4247044324874878  1.0000
  O   O4        1.0  0.48202991485595703  0.38577407598495483  0.0663439929485321  1.0000
  O   O5        1.0  0.9779077172279358  0.5525165796279907  0.14571832120418549  1.0000
  Ca  Ca3       1.0  0.5378804802894592  0.3826946318149567  0.5555498600006104  1.0000
  O   O6        1.0  0.7930597066879272  0.3483917713165283  0.3610788583755493  1.0000
  O   O7        1.0  0.4260141849517822  0.04589695483446121  0.6348035335540771  1.0000
  O   O8        1.0  0.8995493650436401  0.1700364202260971  0.6249695420265198  1.0000
  O   O9        1.0  0.8325529098510742  0.7697809338569641  0.7806823253631592  1.0000
  O   O10       1.0  0.25450628995895386  0.5467774271965027  0.6563013792037964  1.0000
  O   O11       1.0  0.7141251564025879  0.10387110710144043  0.975358784198761  1.0000
