data_image360
_chemical_formula_structural       TiSiOSiO7
_chemical_formula_sum              "Ti1 Si2 O8"
_cell_length_a       5.512299968597419
_cell_length_b       5.495525889991784
_cell_length_c       6.5048418045043945
_cell_angle_alpha    89.56634012073593
_cell_angle_beta     89.71912462512067
_cell_angle_gamma    119.89396106304999

_space_group_name_H-M_alt    "P 1"
_space_group_IT_number       1

loop_
  _space_group_symop_operation_xyz
  'x, y, z'

loop_
  _atom_site_type_symbol
  _atom_site_label
  _atom_site_symmetry_multiplicity
  _atom_site_fract_x
  _atom_site_fract_y
  _atom_site_fract_z
  _atom_site_occupancy
  Ti  Ti1       1.0  0.24287827312946322  0.7048009634017945  0.8691266179084777  1.0000
  Si  Si1       1.0  0.576210618019104  0.37107840180397034  0.1253354400396347  1.0000
  O   O1        1.0  0.5758105516433716  0.3714050948619843  0.36401799321174616  1.0000
  Si  Si2       1.0  0.9089573621749878  0.03825605660676957  0.6138529777526855  1.0000
  O   O2        1.0  0.9059304594993591  0.5361790060997009  0.0399138368666172  1.0000
  O   O3        1.0  0.07374653220176697  0.36783120036125183  0.6992989778518676  1.0000
  O   O4        1.0  0.41151976585388184  0.041851736605167396  0.038855571299791336  1.0000
  O   O5        1.0  0.07411660999059677  0.8726239800453187  0.6991229057312011  1.0000
  O   O6        1.0  0.9099549651145935  0.03780036792159081  0.3754728436470031  1.0000
  O   O7        1.0  0.4111197888851166  0.5361305475234986  0.039956871420145035  1.0000
  O   O8        1.0  0.5785498023033143  0.8722737431526185  0.6995836496353148  1.0000
