data_image567
_chemical_formula_structural       SiCaTiO2CaO4
_chemical_formula_sum              "Si1 Ca2 Ti1 O6"
_cell_length_a       5.277512112045263
_cell_length_b       5.281263211253336
_cell_length_c       5.287179946899414
_cell_angle_alpha    59.95119010678548
_cell_angle_beta     89.99307669292955
_cell_angle_gamma    60.19625678770312

_space_group_name_H-M_alt    "P 1"
_space_group_IT_number       1

loop_
  _space_group_symop_operation_xyz
  'x, y, z'

loop_
  _atom_site_type_symbol
  _atom_site_label
  _atom_site_symmetry_multiplicity
  _atom_site_fract_x
  _atom_site_fract_y
  _atom_site_fract_z
  _atom_site_occupancy
  Si  Si1       1.0  0.80817312002182  0.17234548926353455  0.2428196668624878  1.0000
  Ca  Ca1       1.0  0.05595186352729802  0.67141854763031  0.9945155382156372  1.0000
  Ti  Ti1       1.0  0.3078339695930481  0.1723477691411972  0.7426968812942505  1.0000
  O   O1        1.0  0.6111565828323364  0.13618023693561554  0.5241206884384155  1.0000
  O   O2        1.0  0.09296456724405289  0.13153886795043945  0.4770180284976959  1.0000
  Ca  Ca2       1.0  0.5594634413719177  0.6730561256408691  0.49111849069595337  1.0000
  O   O3        1.0  0.5727865099906921  0.6518740057945251  0.04176133871078491  1.0000
  O   O4        1.0  0.005134151782840485  0.20769162476062775  0.9617950916290283  1.0000
  O   O5        1.0  0.5229076147079468  0.2135019600391388  0.007877686992287636  1.0000
  O   O6        1.0  0.04254500195384028  0.693004548549652  0.4432326555252075  1.0000
