data_image221
_chemical_formula_structural       TiSiOCaO7Si
_chemical_formula_sum              "Ti1 Si2 O8 Ca1"
_cell_length_a       5.64153319990339
_cell_length_b       5.640751060799225
_cell_length_c       5.6440300941467285
_cell_angle_alpha    106.49827602236832
_cell_angle_beta     106.36043577609946
_cell_angle_gamma    115.6560121087258

_space_group_name_H-M_alt    "P 1"
_space_group_IT_number       1

loop_
  _space_group_symop_operation_xyz
  'x, y, z'

loop_
  _atom_site_type_symbol
  _atom_site_label
  _atom_site_symmetry_multiplicity
  _atom_site_fract_x
  _atom_site_fract_y
  _atom_site_fract_z
  _atom_site_occupancy
  Ti  Ti1       1.0  0.6507656574249268  0.6544530391693115  0.8877314329147339  1.0000
  Si  Si1       1.0  0.8995329737663269  0.40443605184555054  0.38932284712791443  1.0000
  O   O1        1.0  0.7358131408691406  0.4401337802410126  0.5869207978248596  1.0000
  Ca  Ca1       1.0  0.39954271912574774  0.9043608903884889  0.38865301012992864  1.0000
  O   O2        1.0  0.8644964694976807  0.5676347017288208  0.1900162547826766  1.0000
  O   O3        1.0  0.33795106410980225  0.5146757364273071  0.06019100546836853  1.0000
  O   O4        1.0  0.7881790399551392  0.9665437936782837  0.7168912887573242  1.0000
  O   O5        1.0  0.7344842553138733  0.04144292324781418  0.18924897909164423  1.0000
  O   O6        1.0  0.13291089236736298  0.9650651216506958  0.061377651989459985  1.0000
  O   O7        1.0  0.33564019203186035  0.16831849515438083  0.7170245051383972  1.0000
  O   O8        1.0  0.2610899806022644  0.5668139457702637  0.5865693092346191  1.0000
  Si  Si2       1.0  0.14815618097782135  0.15342667698860168  0.8893854022026062  1.0000
