data_image237
_chemical_formula_structural       SiCaTiSiTiOSi2
_chemical_formula_sum              "Si4 Ca1 Ti2 O1"
_cell_length_a       3.6516398424720604
_cell_length_b       3.6535726937395037
_cell_length_c       11.706642150878906
_cell_angle_alpha    90.07038759959254
_cell_angle_beta     90.13670874572526
_cell_angle_gamma    120.10140748327943

_space_group_name_H-M_alt    "P 1"
_space_group_IT_number       1

loop_
  _space_group_symop_operation_xyz
  'x, y, z'

loop_
  _atom_site_type_symbol
  _atom_site_label
  _atom_site_symmetry_multiplicity
  _atom_site_fract_x
  _atom_site_fract_y
  _atom_site_fract_z
  _atom_site_occupancy
  Si  Si1       1.0  0.8156551718711854  0.015701986849308014  0.5264803171157837  1.0000
  Ca  Ca1       1.0  0.14839839935302734  0.6810163259506226  0.8149130940437317  1.0000
  Ti  Ti1       1.0  0.8142731785774232  0.013385341502726078  0.04947316274046898  1.0000
  Si  Si2       1.0  0.4806745052337647  0.34626227617263794  0.16477681696414948  1.0000
  Ti  Ti2       1.0  0.48140051960945135  0.34870317578315735  0.38934043049812317  1.0000
  O   O1        1.0  0.8150428533554078  0.01405847817659378  0.8953912854194642  1.0000
  Si  Si3       1.0  0.48259478807449346  0.3493426442146301  0.6187273859977722  1.0000
  Si  Si4       1.0  0.1478741019964218  0.6821091771125792  0.2604639530181885  1.0000
