data_image147
_chemical_formula_structural       CaOCaO2Si2OSiO5SiO
_chemical_formula_sum              "Ca2 O10 Si4"
_cell_length_a       4.7638578118029455
_cell_length_b       6.662236544881063
_cell_length_c       7.614023208618164
_cell_angle_alpha    83.74301638615201
_cell_angle_beta     90.14258954146366
_cell_angle_gamma    90.13169538895072

_space_group_name_H-M_alt    "P 1"
_space_group_IT_number       1

loop_
  _space_group_symop_operation_xyz
  'x, y, z'

loop_
  _atom_site_type_symbol
  _atom_site_label
  _atom_site_symmetry_multiplicity
  _atom_site_fract_x
  _atom_site_fract_y
  _atom_site_fract_z
  _atom_site_occupancy
  Ca  Ca1       1.0  0.26056626439094543  0.7382112741470336  0.6388590335845947  1.0000
  O   O1        1.0  0.9487318396568298  0.44930881261825556  0.5718483328819275  1.0000
  Ca  Ca2       1.0  0.7549725770950317  0.8040270805358886  0.02269441634416582  1.0000
  O   O2        1.0  0.9048967957496643  0.6101333498954773  0.23560406267642978  1.0000
  O   O3        1.0  0.6504189968109131  0.6068871021270751  0.8083279728889465  1.0000
  Si  Si1       1.0  0.2862012982368469  0.1410141289234161  0.8970354795455934  1.0000
  Si  Si2       1.0  0.9782310724258423  0.4093272089958191  0.35454249382019043  1.0000
  O   O4        1.0  0.30065229535102844  0.340321809053421  0.3339897692203522  1.0000
  Si  Si3       1.0  0.7846415042877197  0.40045550465583796  0.7608194351196289  1.0000
  O   O5        1.0  0.8014621138572693  0.20393040776252744  0.32804638147354126  1.0000
  O   O6        1.0  0.5427895784378052  0.2191910594701767  0.7575260400772095  1.0000
  O   O7        1.0  0.1538270264863968  0.9306927919387817  0.8569918870925904  1.0000
  O   O8        1.0  0.4070141315460205  0.932592749595642  0.4220581948757173  1.0000
  O   O9        1.0  0.04485950246453285  0.3194032609462738  0.8960260748863221  1.0000
  Si  Si4       1.0  0.47938409447669983  0.13503634929656982  0.30524104833602905  1.0000
  O   O10       1.0  0.45303788781166077  0.09994033724069594  0.08637192845344543  1.0000
