data_image512
_chemical_formula_structural       TiCaOSiOTiO6
_chemical_formula_sum              "Ti2 Ca1 O8 Si1"
_cell_length_a       5.751922016770585
_cell_length_b       5.762387861897142
_cell_length_c       5.762523174285889
_cell_angle_alpha    106.56390051596014
_cell_angle_beta     106.29036567606046
_cell_angle_gamma    115.66007334237884

_space_group_name_H-M_alt    "P 1"
_space_group_IT_number       1

loop_
  _space_group_symop_operation_xyz
  'x, y, z'

loop_
  _atom_site_type_symbol
  _atom_site_label
  _atom_site_symmetry_multiplicity
  _atom_site_fract_x
  _atom_site_fract_y
  _atom_site_fract_z
  _atom_site_occupancy
  Ti  Ti1       1.0  0.4788180887699127  0.2529484033584595  0.49863043427467346  1.0000
  Ca  Ca1       1.0  0.2290131002664566  0.5053975582122803  0.9990618228912354  1.0000
  O   O1        1.0  0.5712286829948425  0.6532483100891113  0.8042078614234924  1.0000
  Si  Si1       1.0  0.7287256121635437  0.005602198652923107  0.9991992712020874  1.0000
  O   O2        1.0  0.18864980340003967  0.7855865955352783  0.32036751508712763  1.0000
  Ti  Ti2       1.0  0.9789381623268127  0.7548580765724182  0.4994906187057495  1.0000
  O   O3        1.0  0.5715756416320801  0.04287029802799225  0.19352611899375916  1.0000
  O   O4        1.0  0.6912351250648499  0.16192235052585602  0.803990364074707  1.0000
  O   O5        1.0  0.9466211795806885  0.5437082648277283  0.6760363578796387  1.0000
  O   O6        1.0  0.19068394601345062  0.14504723250865936  0.6757085919380188  1.0000
  O   O7        1.0  0.08080156147480011  0.1621999442577362  0.19316144287586212  1.0000
  O   O8        1.0  0.5899457931518555  0.5445532202720642  0.32147979736328125  1.0000
