data_image374
_chemical_formula_structural       TiSiCaTiOCa2TiSi2OTiOSiO
_chemical_formula_sum              "Ti4 Si4 Ca3 O4"
_cell_length_a       4.141413391380671
_cell_length_b       4.138254289163503
_cell_length_c       13.672358512878418
_cell_angle_alpha    98.6327403200749
_cell_angle_beta     98.68051765862074
_cell_angle_gamma    89.9838147943326

_space_group_name_H-M_alt    "P 1"
_space_group_IT_number       1

loop_
  _space_group_symop_operation_xyz
  'x, y, z'

loop_
  _atom_site_type_symbol
  _atom_site_label
  _atom_site_symmetry_multiplicity
  _atom_site_fract_x
  _atom_site_fract_y
  _atom_site_fract_z
  _atom_site_occupancy
  Ti  Ti1       1.0  0.08718810975551605  0.9273008108139039  0.5488196611404419  1.0000
  Si  Si1       1.0  0.8861797451972961  0.22778750956058505  0.14522260427474976  1.0000
  Ca  Ca1       1.0  0.7684296369552612  0.10921578109264374  0.9107822775840758  1.0000
  Ti  Ti2       1.0  0.5879265069961548  0.4274496734142304  0.5497866868972778  1.0000
  O   O1        1.0  0.1079242080450058  0.4480991065502167  0.5886954069137573  1.0000
  Ca  Ca2       1.0  0.20691251754760742  0.5469418168067932  0.7877693772315978  1.0000
  Ca  Ca3       1.0  0.32998499274253845  0.6715654730796814  0.0346524640917778  1.0000
  Ti  Ti3       1.0  0.9489420652389526  0.7911203503608704  0.2728595435619354  1.0000
  Si  Si2       1.0  0.524822473526001  0.8643848896026611  0.4228453934192657  1.0000
  Si  Si3       1.0  0.013017053715884686  0.35355761647224426  0.4005024135112762  1.0000
  O   O2        1.0  0.4288143515586853  0.7709615230560304  0.2330549508333206  1.0000
  Ti  Ti4       1.0  0.44982805848121643  0.29087099432945257  0.2731021046638489  1.0000
  O   O3        1.0  0.2679542601108551  0.10830903053283691  0.9113615155220031  1.0000
  Si  Si4       1.0  0.6516484618186951  0.99061518907547  0.6764280796051024  1.0000
  O   O4        1.0  0.7683148980140686  0.6087625026702881  0.9106185436248778  1.0000
