data_image281
_chemical_formula_structural       CaSiOSi2OTiO8
_chemical_formula_sum              "Ca1 Si3 O10 Ti1"
_cell_length_a       5.905709682200488
_cell_length_b       5.565999315257172
_cell_length_c       7.444014549255371
_cell_angle_alpha    100.65002872549519
_cell_angle_beta     95.20624622371095
_cell_angle_gamma    101.5996104306915

_space_group_name_H-M_alt    "P 1"
_space_group_IT_number       1

loop_
  _space_group_symop_operation_xyz
  'x, y, z'

loop_
  _atom_site_type_symbol
  _atom_site_label
  _atom_site_symmetry_multiplicity
  _atom_site_fract_x
  _atom_site_fract_y
  _atom_site_fract_z
  _atom_site_occupancy
  Ca  Ca1       1.0  0.7352102398872375  0.9369676113128661  0.19260391592979428  1.0000
  Si  Si1       1.0  0.5900113582611084  0.07464732974767685  0.6500201225280762  1.0000
  O   O1        1.0  0.42011716961860657  0.8187370896339417  0.6620736122131348  1.0000
  Si  Si2       1.0  0.2957383990287781  0.3313049674034118  0.16470138728618622  1.0000
  Si  Si3       1.0  0.9644007682800293  0.45305100083351135  0.87425297498703  1.0000
  O   O2        1.0  0.4371386468410492  0.1149449571967125  0.1373251974582672  1.0000
  Ti  Ti1       1.0  0.27159383893013  0.4918004870414734  0.5310038924217224  1.0000
  O   O3        1.0  0.19648198783397675  0.39524859189987177  0.9738588929176331  1.0000
  O   O4        1.0  0.7578750252723694  0.193381667137146  0.8472950458526611  1.0000
  O   O5        1.0  0.08470958471298218  0.27361851930618286  0.2971875071525574  1.0000
  O   O6        1.0  0.4408016502857208  0.28647568821907043  0.6037988066673279  1.0000
  O   O7        1.0  0.025474756956100453  0.4934202134609222  0.6662113666534424  1.0000
  O   O8        1.0  0.8725598454475403  0.6778461337089539  0.9911547303199767  1.0000
  O   O9        1.0  0.44753792881965637  0.5821405649185181  0.3072625398635864  1.0000
  O   O10       1.0  0.7567822933197021  0.006668887566775083  0.4923307299613953  1.0000
