data_image522
_chemical_formula_structural       CaTiO4SiO2
_chemical_formula_sum              "Ca1 Ti1 O6 Si1"
_cell_length_a       4.990948378968793
_cell_length_b       5.004663411531046
_cell_length_c       5.001250267028809
_cell_angle_alpha    89.9764998239266
_cell_angle_beta     90.04601065972908
_cell_angle_gamma    60.04654473669234

_space_group_name_H-M_alt    "P 1"
_space_group_IT_number       1

loop_
  _space_group_symop_operation_xyz
  'x, y, z'

loop_
  _atom_site_type_symbol
  _atom_site_label
  _atom_site_symmetry_multiplicity
  _atom_site_fract_x
  _atom_site_fract_y
  _atom_site_fract_z
  _atom_site_occupancy
  Ca  Ca1       1.0  0.4450318217277527  0.7033265829086304  0.020853742957115173  1.0000
  Ti  Ti1       1.0  0.7789245843887329  0.036339204758405685  0.5211938619613647  1.0000
  O   O1        1.0  0.42038577795028687  0.08883281797170639  0.7243329882621765  1.0000
  O   O2        1.0  0.08415485173463823  0.6774891018867493  0.7241278886795044  1.0000
  O   O3        1.0  0.420137494802475  0.3416827321052551  0.3172246217727661  1.0000
  O   O4        1.0  0.8315684795379639  0.6777400374412537  0.3171616792678833  1.0000
  Si  Si1       1.0  0.11209657788276672  0.369424045085907  0.5211946964263916  1.0000
  O   O5        1.0  0.08452372997999193  0.08919584006071091  0.3173147737979889  1.0000
  O   O6        1.0  0.8309584856033325  0.3421781659126282  0.7244735360145569  1.0000
