data_image412
_chemical_formula_structural       Ti2CaOSiCaTiSiTi2Si2
_chemical_formula_sum              "Ti5 Ca2 O1 Si4"
_cell_length_a       4.004048035446054
_cell_length_b       4.007205889712252
_cell_length_c       13.534488677978516
_cell_angle_alpha    98.46238154811597
_cell_angle_beta     98.44918475847984
_cell_angle_gamma    89.99736609213492

_space_group_name_H-M_alt    "P 1"
_space_group_IT_number       1

loop_
  _space_group_symop_operation_xyz
  'x, y, z'

loop_
  _atom_site_type_symbol
  _atom_site_label
  _atom_site_symmetry_multiplicity
  _atom_site_fract_x
  _atom_site_fract_y
  _atom_site_fract_z
  _atom_site_occupancy
  Ti  Ti1       1.0  0.7144687771797179  0.3124170899391174  0.13359200954437256  1.0000
  Ti  Ti2       1.0  0.904995322227478  0.002478513401001692  0.5159999132156372  1.0000
  Ca  Ca1       1.0  0.015391835942864416  0.6130676865577697  0.7360875010490419  1.0000
  O   O1        1.0  0.11083458364009857  0.7086246013641356  0.9281204938888551  1.0000
  Si  Si1       1.0  0.4667794406414032  0.06494949758052825  0.6406418085098268  1.0000
  Ca  Ca2       1.0  0.3038294017314911  0.90156090259552  0.3134871721267701  1.0000
  Ti  Ti3       1.0  0.12531018257141113  0.2233956009149551  0.9567130208015443  1.0000
  Si  Si2       1.0  0.5582295060157776  0.15587820112705228  0.8220857381820681  1.0000
  Ti  Ti4       1.0  0.6242327094078064  0.7219817042350769  0.9556202888488771  1.0000
  Ti  Ti5       1.0  0.40456458926200867  0.5030075907707214  0.5156666040420532  1.0000
  Si  Si3       1.0  0.8420790433883667  0.4400000870227813  0.3890904784202576  1.0000
  Si  Si4       1.0  0.1981794238090515  0.7954804301261902  0.10096807777881624  1.0000
