data_image266
_chemical_formula_structural       CaTiO5SiO
_chemical_formula_sum              "Ca1 Ti1 O6 Si1"
_cell_length_a       4.983121659060251
_cell_length_b       4.98980233022174
_cell_length_c       4.961086750030518
_cell_angle_alpha    90.1173178372256
_cell_angle_beta     90.0888086167792
_cell_angle_gamma    120.03126066140888

_space_group_name_H-M_alt    "P 1"
_space_group_IT_number       1

loop_
  _space_group_symop_operation_xyz
  'x, y, z'

loop_
  _atom_site_type_symbol
  _atom_site_label
  _atom_site_symmetry_multiplicity
  _atom_site_fract_x
  _atom_site_fract_y
  _atom_site_fract_z
  _atom_site_occupancy
  Ca  Ca1       1.0  0.25413280725479126  0.7474207878112793  0.6239590048789978  1.0000
  Ti  Ti1       1.0  0.5878481864929199  0.4138054847717285  0.12390067428350449  1.0000
  O   O1        1.0  0.22861728072166443  0.10872478038072586  0.9206790328025818  1.0000
  O   O2        1.0  0.6396279335021973  0.10775180160999298  0.3274783492088318  1.0000
  O   O3        1.0  0.8933441042900085  0.3617187440395355  0.9208786487579346  1.0000
  O   O4        1.0  0.8929861783981323  0.7731338739395142  0.3272370398044586  1.0000
  O   O5        1.0  0.22862990200519562  0.3616868555545807  0.327144056558609  1.0000
  Si  Si1       1.0  0.9199026226997375  0.08141849935054779  0.12404371798038483  1.0000
  O   O6        1.0  0.6398023366928101  0.7727932333946228  0.9206222295761108  1.0000
