data_image194
_chemical_formula_structural       CaTiOSi
_chemical_formula_sum              "Ca1 Ti1 O1 Si1"
_cell_length_a       3.1316182028425485
_cell_length_b       3.134356673427809
_cell_length_c       7.281550407409668
_cell_angle_alpha    77.74634979539384
_cell_angle_beta     77.7357758597577
_cell_angle_gamma    60.21816763954446

_space_group_name_H-M_alt    "P 1"
_space_group_IT_number       1

loop_
  _space_group_symop_operation_xyz
  'x, y, z'

loop_
  _atom_site_type_symbol
  _atom_site_label
  _atom_site_symmetry_multiplicity
  _atom_site_fract_x
  _atom_site_fract_y
  _atom_site_fract_z
  _atom_site_occupancy
  Ca  Ca1       1.0  0.8011602759361267  0.9069309234619141  0.9672650694847108  1.0000
  Ti  Ti1       1.0  0.004067377652972937  0.10954642295837402  0.3578459322452545  1.0000
  O   O1        1.0  0.39660778641700745  0.5024867653846741  0.18239453434944156  1.0000
  Si  Si1       1.0  0.24587066471576685  0.3523332178592682  0.6313244700431824  1.0000
