data_image348
_chemical_formula_structural       CaTiO3
_chemical_formula_sum              "Ca1 Ti1 O3"
_cell_length_a       3.7547022751584347
_cell_length_b       3.762845987664739
_cell_length_c       4.5420708656311035
_cell_angle_alpha    90.222475427781
_cell_angle_beta     90.1591732429546
_cell_angle_gamma    90.09570027840208

_space_group_name_H-M_alt    "P 1"
_space_group_IT_number       1

loop_
  _space_group_symop_operation_xyz
  'x, y, z'

loop_
  _atom_site_type_symbol
  _atom_site_label
  _atom_site_symmetry_multiplicity
  _atom_site_fract_x
  _atom_site_fract_y
  _atom_site_fract_z
  _atom_site_occupancy
  Ca  Ca1       1.0  0.43644770979881287  0.6452526450157164  0.7532979249954224  1.0000
  Ti  Ti1       1.0  0.9360049366950989  0.1445956528186798  0.3255559504032135  1.0000
  O   O1        1.0  0.43590983748435974  0.14384271204471588  0.4365186095237732  1.0000
  O   O2        1.0  0.9359145760536194  0.14464683830738068  0.9355998635292053  1.0000
  O   O3        1.0  0.9358210563659668  0.6445695161819458  0.43531176447868347  1.0000
