data_image328
_chemical_formula_structural       TiCaTiO2SiO3
_chemical_formula_sum              "Ti2 Ca1 O5 Si1"
_cell_length_a       3.7511121716831224
_cell_length_b       3.756113517582287
_cell_length_c       6.935919284820557
_cell_angle_alpha    89.95457491604539
_cell_angle_beta     89.93290955266394
_cell_angle_gamma    89.91034942819698

_space_group_name_H-M_alt    "P 1"
_space_group_IT_number       1

loop_
  _space_group_symop_operation_xyz
  'x, y, z'

loop_
  _atom_site_type_symbol
  _atom_site_label
  _atom_site_symmetry_multiplicity
  _atom_site_fract_x
  _atom_site_fract_y
  _atom_site_fract_z
  _atom_site_occupancy
  Ti  Ti1       1.0  0.42819416522979736  0.9124895334243773  0.47950690984725947  1.0000
  Ca  Ca1       1.0  0.9281642436981201  0.41216745972633356  0.1582651287317276  1.0000
  Ti  Ti2       1.0  0.9285174012184143  0.4128266870975494  0.6382856965065002  1.0000
  O   O1        1.0  0.4284469783306122  0.4121594429016113  0.4495431184768676  1.0000
  O   O2        1.0  0.4284668266773224  0.912702739238739  0.13538049161434174  1.0000
  Si  Si1       1.0  0.42853933572769165  0.9125508666038512  0.8894300460815429  1.0000
  O   O3        1.0  0.9282016754150391  0.9128561615943908  0.8694000840187072  1.0000
  O   O4        1.0  0.9284276366233826  0.9124947786331176  0.4477929770946502  1.0000
  O   O5        1.0  0.42827656865119934  0.41244459152221674  0.8684203028678893  1.0000
