data_image80
_chemical_formula_structural       OTiO2CaSi2O5
_chemical_formula_sum              "O8 Ti1 Ca1 Si2"
_cell_length_a       5.334142612033158
_cell_length_b       5.335912228189082
_cell_length_c       6.301046848297119
_cell_angle_alpha    90.00082895735368
_cell_angle_beta     89.96707416357373
_cell_angle_gamma    119.95301454597364

_space_group_name_H-M_alt    "P 1"
_space_group_IT_number       1

loop_
  _space_group_symop_operation_xyz
  'x, y, z'

loop_
  _atom_site_type_symbol
  _atom_site_label
  _atom_site_symmetry_multiplicity
  _atom_site_fract_x
  _atom_site_fract_y
  _atom_site_fract_z
  _atom_site_occupancy
  O   O1        1.0  0.7776488065719604  0.48487433791160583  0.06483159959316254  1.0000
  Ti  Ti1       1.0  0.2686057686805725  0.4672383666038513  0.6427156329154968  1.0000
  O   O2        1.0  0.6019922494888306  0.1348336935043335  0.388271301984787  1.0000
  O   O3        1.0  0.2685747444629669  0.4669952690601349  0.36595481634140015  1.0000
  Ca  Ca1       1.0  0.9350629448890687  0.8002907037734985  0.38841989636421204  1.0000
  Si  Si1       1.0  0.9345922470092775  0.7997559309005737  0.8952434659004211  1.0000
  Si  Si2       1.0  0.602517306804657  0.13372209668159482  0.13411511480808258  1.0000
  O   O4        1.0  0.08379523456096649  0.09770449250936507  0.7255502939224243  1.0000
  O   O5        1.0  0.7768772840499878  0.9582656025886535  0.0648873969912529  1.0000
  O   O6        1.0  0.25099411606788635  0.9580813050270081  0.06434886157512665  1.0000
  O   O7        1.0  0.6370477080345154  0.6512978672981261  0.7261255979537964  1.0000
  O   O8        1.0  0.08428898453712463  0.6518899202346802  0.7256367206573486  1.0000
