data_image536
_chemical_formula_structural       CaTiSi2OSiTiO4CaO4CaO3
_chemical_formula_sum              "Ca3 Ti2 Si3 O12"
_cell_length_a       6.070347077880384
_cell_length_b       7.884570236488849
_cell_length_c       7.9475884437561035
_cell_angle_alpha    74.24166323539468
_cell_angle_beta     67.70013896417225
_cell_angle_gamma    69.22887754700339

_space_group_name_H-M_alt    "P 1"
_space_group_IT_number       1

loop_
  _space_group_symop_operation_xyz
  'x, y, z'

loop_
  _atom_site_type_symbol
  _atom_site_label
  _atom_site_symmetry_multiplicity
  _atom_site_fract_x
  _atom_site_fract_y
  _atom_site_fract_z
  _atom_site_occupancy
  Ca  Ca1       1.0  0.1483059674501419  0.3111484944820404  0.34637656807899475  1.0000
  Ti  Ti1       1.0  0.9688316583633423  0.7566944360733032  0.31111785769462585  1.0000
  Si  Si1       1.0  0.7534343600273132  0.17453940212726593  0.3389005661010742  1.0000
  Si  Si2       1.0  0.17211537063121793  0.7129422426223755  0.8982083201408386  1.0000
  O   O1        1.0  0.5054748058319092  0.33796629309654236  0.33380183577537537  1.0000
  Si  Si3       1.0  0.12213651090860367  0.29237812757492065  0.9381014108657837  1.0000
  Ti  Ti2       1.0  0.7750948071479797  0.12926730513572693  0.7864391207695007  1.0000
  O   O2        1.0  0.010114520788192747  0.21206927299499512  0.1633472740650177  1.0000
  O   O3        1.0  0.7270762920379639  0.9787014126777649  0.3313996195793152  1.0000
  O   O4        1.0  0.42957255244255066  0.694882333278656  0.7370326519012451  1.0000
  O   O5        1.0  0.8292856812477112  0.17991821467876432  0.5204794406890869  1.0000
  Ca  Ca2       1.0  0.7965964674949646  0.6628596186637878  0.7634344696998596  1.0000
  O   O6        1.0  0.08781315386295319  0.5159541368484497  0.9258443117141724  1.0000
  O   O7        1.0  0.201640784740448  0.7351185083389282  0.08652909845113754  1.0000
  O   O8        1.0  0.9435995817184448  0.2886408865451813  0.8281813859939575  1.0000
  O   O9        1.0  0.09403594583272935  0.6991268396377563  0.495797723531723  1.0000
  Ca  Ca3       1.0  0.47060921788215637  0.5406519770622253  0.5115392804145813  1.0000
  O   O10       1.0  0.4191274642944336  0.1991201788187027  0.8596130609512329  1.0000
  O   O11       1.0  0.9274771809577942  0.8730077147483826  0.8513460755348206  1.0000
  O   O12       1.0  0.839175283908844  0.5735694766044617  0.35966864228248596  1.0000
