data_image572
_chemical_formula_structural       OCaTi2O2SiO5
_chemical_formula_sum              "O8 Ca1 Ti2 Si1"
_cell_length_a       3.5390462713738957
_cell_length_b       6.337977373786095
_cell_length_c       6.338301658630371
_cell_angle_alpha    77.88965375394936
_cell_angle_beta     89.94877608364807
_cell_angle_gamma    89.96221789629061

_space_group_name_H-M_alt    "P 1"
_space_group_IT_number       1

loop_
  _space_group_symop_operation_xyz
  'x, y, z'

loop_
  _atom_site_type_symbol
  _atom_site_label
  _atom_site_symmetry_multiplicity
  _atom_site_fract_x
  _atom_site_fract_y
  _atom_site_fract_z
  _atom_site_occupancy
  O   O1        1.0  0.6721323132514954  0.9239034652709961  0.5058201551437378  1.0000
  Ca  Ca1       1.0  0.171918585896492  0.7223557233810425  0.7057881355285645  1.0000
  Ti  Ti1       1.0  0.6721340417861938  0.2149822860956192  0.5809397101402283  1.0000
  Ti  Ti2       1.0  0.6711378693580627  0.8474223017692566  0.21357534825801852  1.0000
  O   O2        1.0  0.6715558767318726  0.38054317235946655  0.3140187263488769  1.0000
  O   O3        1.0  0.1725688874721527  0.13162443041801453  0.6554628610610962  1.0000
  Si  Si1       1.0  0.6718466877937317  0.3995202779769897  0.030349735170602816  1.0000
  O   O4        1.0  0.17135941982269287  0.7747115492820739  0.2976079285144806  1.0000
  O   O5        1.0  0.6718549132347107  0.4413537383079528  0.7387590408325195  1.0000
  O   O6        1.0  0.6718466281890869  0.6915820837020874  0.9872552156448364  1.0000
  O   O7        1.0  0.6722645163536072  0.11483047157526016  0.05028972402215004  1.0000
  O   O8        1.0  0.1718466430902481  0.4084731638431549  0.020514797419309616  1.0000
