data_image571
_chemical_formula_structural       TiCaOSiO2
_chemical_formula_sum              "Ti1 Ca1 O3 Si1"
_cell_length_a       5.277765653217262
_cell_length_b       4.779888328842814
_cell_length_c       5.289654731750488
_cell_angle_alpha    90.4246899760109
_cell_angle_beta     119.86538221988346
_cell_angle_gamma    123.73039859910016

_space_group_name_H-M_alt    "P 1"
_space_group_IT_number       1

loop_
  _space_group_symop_operation_xyz
  'x, y, z'

loop_
  _atom_site_type_symbol
  _atom_site_label
  _atom_site_symmetry_multiplicity
  _atom_site_fract_x
  _atom_site_fract_y
  _atom_site_fract_z
  _atom_site_occupancy
  Ti  Ti1       1.0  0.20191358029842377  0.34996873140335083  0.30153733491897583  1.0000
  Ca  Ca1       1.0  0.20924252271652216  0.8554536104202269  0.8072258830070496  1.0000
  O   O1        1.0  0.600563108921051  0.4603528678417206  0.29248550534248346  1.0000
  Si  Si1       1.0  0.7577158212661743  0.6839327812194824  0.08059399574995041  1.0000
  O   O2        1.0  0.902181088924408  0.4590994119644165  0.015164084732532501  1.0000
  O   O3        1.0  0.3240073025226593  0.46017584204673767  0.7101845741271973  1.0000
