data_image181
_chemical_formula_structural       OCaTiOSiOCaO3
_chemical_formula_sum              "O6 Ca2 Ti1 Si1"
_cell_length_a       5.270425732423572
_cell_length_b       5.27369308236039
_cell_length_c       5.277242183685303
_cell_angle_alpha    119.82221507447417
_cell_angle_beta     90.34714003249435
_cell_angle_gamma    119.99406056621206

_space_group_name_H-M_alt    "P 1"
_space_group_IT_number       1

loop_
  _space_group_symop_operation_xyz
  'x, y, z'

loop_
  _atom_site_type_symbol
  _atom_site_label
  _atom_site_symmetry_multiplicity
  _atom_site_fract_x
  _atom_site_fract_y
  _atom_site_fract_z
  _atom_site_occupancy
  O   O1        1.0  0.059181235730648006  0.30422630906105036  0.7250261306762695  1.0000
  Ca  Ca1       1.0  0.020921451970934875  0.2786027193069458  0.18022045493125913  1.0000
  Ti  Ti1       1.0  0.7714489698410034  0.7826991081237793  0.4354047179222107  1.0000
  O   O2        1.0  0.5104475617408752  0.8377664685249329  0.2300083339214325  1.0000
  Si  Si1       1.0  0.27176985144615173  0.7827275991439819  0.93553626537323  1.0000
  O   O3        1.0  0.0038017714396119244  0.7823197245597839  0.14585846662521362  1.0000
  Ca  Ca2       1.0  0.5221403241157532  0.28637534379959106  0.6904653310775757  1.0000
  O   O4        1.0  0.5387058258056641  0.7827350497245789  0.7247284054756165  1.0000
  O   O5        1.0  0.48348498344421387  0.26135262846946716  0.14559036493301392  1.0000
  O   O6        1.0  0.03238049894571304  0.7279302477836609  0.6410266160964966  1.0000
