data_image350
_chemical_formula_structural       OSi2TiOCaO2Ca2SiO6CaO2
_chemical_formula_sum              "O12 Si3 Ti1 Ca4"
_cell_length_a       6.515256961890463
_cell_length_b       6.708609521132706
_cell_length_c       8.049572944641113
_cell_angle_alpha    71.51033814455332
_cell_angle_beta     69.39839529776947
_cell_angle_gamma    73.08838606518948

_space_group_name_H-M_alt    "P 1"
_space_group_IT_number       1

loop_
  _space_group_symop_operation_xyz
  'x, y, z'

loop_
  _atom_site_type_symbol
  _atom_site_label
  _atom_site_symmetry_multiplicity
  _atom_site_fract_x
  _atom_site_fract_y
  _atom_site_fract_z
  _atom_site_occupancy
  O   O1        1.0  0.2723577916622162  0.2417024075984955  0.17750138044357297  1.0000
  Si  Si1       1.0  0.1476830244064331  0.8277401924133302  0.9617167711257935  1.0000
  Si  Si2       1.0  0.2409563213586807  0.5801438093185425  0.5584409236907959  1.0000
  Ti  Ti1       1.0  0.44988745450973516  0.41051229834556585  0.1493818014860153  1.0000
  O   O2        1.0  0.3972115814685822  0.4745553731918335  0.6981592178344727  1.0000
  Ca  Ca1       1.0  0.6354036331176758  0.7255973815917969  0.6454764008522034  1.0000
  O   O3        1.0  0.1896939277648926  0.028977258130908016  0.7913497686386107  1.0000
  O   O4        1.0  0.988958239555359  0.6773992180824281  0.9773463606834412  1.0000
  Ca  Ca2       1.0  0.4329551458358765  0.8733806014060974  0.19888906180858612  1.0000
  Ca  Ca3       1.0  0.06152231246232987  0.16219362616539001  0.5379973649978638  1.0000
  Si  Si3       1.0  0.8193492889404298  0.011196359992027283  0.28508442640304565  1.0000
  O   O5        1.0  0.6833867430686951  0.8250653743743896  0.33603981137275696  1.0000
  O   O6        1.0  0.36433616280555725  0.4992400705814362  0.3599676787853241  1.0000
  O   O7        1.0  0.9961372017860414  0.49792459607124334  0.6484311819076538  1.0000
  O   O8        1.0  0.4138529300689698  0.6823406219482423  0.9771406650543213  1.0000
  O   O9        1.0  0.2239940613508225  0.8342054486274719  0.49420514702796936  1.0000
  O   O10       1.0  0.8033384084701539  0.05989771336317063  0.47321391105651855  1.0000
  Ca  Ca4       1.0  0.09645111113786699  0.3338059782981873  0.9364035725593567  1.0000
  O   O11       1.0  0.07649386674165723  0.9330844283103944  0.14749085903167725  1.0000
  O   O12       1.0  0.72792649269104  0.23470264673233032  0.1320001780986786  1.0000
