data_image520
_chemical_formula_structural       SiCaSiO6
_chemical_formula_sum              "Si2 Ca1 O6"
_cell_length_a       4.7593123345164745
_cell_length_b       4.764061716125846
_cell_length_c       5.092113494873047
_cell_angle_alpha    89.95165842640343
_cell_angle_beta     89.94631721620993
_cell_angle_gamma    119.91791862596475

_space_group_name_H-M_alt    "P 1"
_space_group_IT_number       1

loop_
  _space_group_symop_operation_xyz
  'x, y, z'

loop_
  _atom_site_type_symbol
  _atom_site_label
  _atom_site_symmetry_multiplicity
  _atom_site_fract_x
  _atom_site_fract_y
  _atom_site_fract_z
  _atom_site_occupancy
  Si  Si1       1.0  0.20194460451602936  0.548662543296814  0.7514849901199341  1.0000
  Ca  Ca1       1.0  0.8683892488479614  0.8816098570823669  0.2510169744491577  1.0000
  Si  Si2       1.0  0.5353986620903015  0.21514132618904114  0.7512198686599731  1.0000
  O   O1        1.0  0.24738658964633942  0.8817908763885498  0.5583726167678833  1.0000
  O   O2        1.0  0.4905295670032501  0.8822283148765564  0.9438574314117432  1.0000
  O   O3        1.0  0.4899953305721283  0.5038500428199768  0.5583329796791077  1.0000
  O   O4        1.0  0.24681349098682404  0.2605968117713928  0.9438014030456543  1.0000
  O   O5        1.0  0.8694245219230652  0.26035076379776  0.5584788918495178  1.0000
  O   O6        1.0  0.8692225217819214  0.503472626209259  0.944247841835022  1.0000
