data_image378
_chemical_formula_structural       CaOTiCa3SiTiCaSiO7SiO2
_chemical_formula_sum              "Ca5 O10 Ti2 Si3"
_cell_length_a       3.8490669450242048
_cell_length_b       3.833218559164996
_cell_length_c       17.903671264648438
_cell_angle_alpha    102.3371479417567
_cell_angle_beta     96.13781556117323
_cell_angle_gamma    89.96757967014297

_space_group_name_H-M_alt    "P 1"
_space_group_IT_number       1

loop_
  _space_group_symop_operation_xyz
  'x, y, z'

loop_
  _atom_site_type_symbol
  _atom_site_label
  _atom_site_symmetry_multiplicity
  _atom_site_fract_x
  _atom_site_fract_y
  _atom_site_fract_z
  _atom_site_occupancy
  Ca  Ca1       1.0  0.20384772121906278  0.14074435830116272  0.9148207902908325  1.0000
  O   O1        1.0  0.7065920829772949  0.6460932493209838  0.9204785227775574  1.0000
  Ti  Ti1       1.0  0.6471590995788574  0.5284664034843444  0.8023545145988464  1.0000
  Ca  Ca2       1.0  0.4086917042732238  0.5517467260360718  0.32870349287986755  1.0000
  Ca  Ca3       1.0  0.5246528387069702  0.2835406959056854  0.5577490329742432  1.0000
  Ca  Ca4       1.0  0.3024403154850006  0.33997607231140137  0.1157757118344307  1.0000
  Si  Si1       1.0  0.9478212594985961  0.1324503123760223  0.4065973460674286  1.0000
  Ti  Ti2       1.0  0.8597429394721984  0.9552119970321654  0.23070819675922394  1.0000
  Ca  Ca5       1.0  0.09939119964838027  0.9323402643203734  0.7055971622467041  1.0000
  Si  Si2       1.0  0.7543268799781799  0.741444706916809  0.01855530031025409  1.0000
  O   O2        1.0  0.6489129066467285  0.030160300433635708  0.8050208687782288  1.0000
  O   O3        1.0  0.2559026777744293  0.7458491325378417  0.02104947715997696  1.0000
  O   O4        1.0  0.5909472703933716  0.41482788324356074  0.6883758902549744  1.0000
  O   O5        1.0  0.8649271726608275  0.4641973674297333  0.2405160814523697  1.0000
  O   O6        1.0  0.7557923197746277  0.24592748284339902  0.021006554365158074  1.0000
  O   O7        1.0  0.0367172546684742  0.8053393363952636  0.5739021897315979  1.0000
  O   O8        1.0  0.804070472717285  0.842984914779663  0.11899851262569427  1.0000
  Si  Si3       1.0  0.9839741587638854  0.7003908157348632  0.4753606915473938  1.0000
  O   O9        1.0  0.1486051082611084  0.5305843949317931  0.8046386241912842  1.0000
  O   O10       1.0  0.36266371607780457  0.9602956175804137  0.23619122803211212  1.0000
