data_image159
_chemical_formula_structural       CaOSiCaO3TiSiO2SiTiO2
_chemical_formula_sum              "Ca2 O8 Si3 Ti2"
_cell_length_a       5.707380578326998
_cell_length_b       7.416504440999953
_cell_length_c       6.632541656494141
_cell_angle_alpha    108.16288879493545
_cell_angle_beta     97.3177299738798
_cell_angle_gamma    115.20135803902807

_space_group_name_H-M_alt    "P 1"
_space_group_IT_number       1

loop_
  _space_group_symop_operation_xyz
  'x, y, z'

loop_
  _atom_site_type_symbol
  _atom_site_label
  _atom_site_symmetry_multiplicity
  _atom_site_fract_x
  _atom_site_fract_y
  _atom_site_fract_z
  _atom_site_occupancy
  Ca  Ca1       1.0  0.5475651025772096  0.8987206220626832  0.9260361790657042  1.0000
  O   O1        1.0  0.16460087895393372  0.8099519610404968  0.24591472744941717  1.0000
  Si  Si1       1.0  0.38215503096580505  0.284946084022522  0.14167869091033936  1.0000
  Ca  Ca2       1.0  0.1073806881904602  0.10151499509811403  0.5781283378601074  1.0000
  O   O2        1.0  0.7076413631439209  0.47467643022537237  0.21426692605018618  1.0000
  O   O3        1.0  0.7200814485549927  0.845287322998047  0.22910472750663763  1.0000
  O   O4        1.0  0.40255510807037354  0.2612484395503998  0.3849125206470489  1.0000
  Ti  Ti1       1.0  0.380889892578125  0.7025822401046753  0.3583692610263824  1.0000
  Si  Si2       1.0  0.8319812417030334  0.6734573841094972  0.12971161305904394  1.0000
  O   O5        1.0  0.31137344241142273  0.08332815766334534  0.9172468185424804  1.0000
  O   O6        1.0  0.22073556482791903  0.4143755733966828  0.11325839906930926  1.0000
  Si  Si3       1.0  0.10649865120649338  0.5321812629699707  0.5738999843597412  1.0000
  Ti  Ti2       1.0  0.7098616361618042  0.5476541519165039  0.5801428556442261  1.0000
  O   O7        1.0  0.7037180662155151  0.8148455023765565  0.6114317178726196  1.0000
  O   O8        1.0  0.6907840967178345  0.5570073127746582  0.8619694113731383  1.0000
