data_image515
_chemical_formula_structural       TiCaTi2CaSi2O
_chemical_formula_sum              "Ti3 Ca2 Si2 O1"
_cell_length_a       4.053448232487525
_cell_length_b       4.053704740946106
_cell_length_c       9.102364540100098
_cell_angle_alpha    90.00194227816199
_cell_angle_beta     90.00722884485634
_cell_angle_gamma    89.97919091801884

_space_group_name_H-M_alt    "P 1"
_space_group_IT_number       1

loop_
  _space_group_symop_operation_xyz
  'x, y, z'

loop_
  _atom_site_type_symbol
  _atom_site_label
  _atom_site_symmetry_multiplicity
  _atom_site_fract_x
  _atom_site_fract_y
  _atom_site_fract_z
  _atom_site_occupancy
  Ti  Ti1       1.0  0.9708467125892639  0.35807767510414124  0.1932351142168045  1.0000
  Ca  Ca1       1.0  0.47081172466278076  0.8588680028915405  0.3967493772506714  1.0000
  Ti  Ti2       1.0  0.9706800580024719  0.8589434623718262  0.6930228471755981  1.0000
  Ti  Ti3       1.0  0.47077906131744385  0.35864362120628357  0.6932908296585083  1.0000
  Ca  Ca2       1.0  0.4709061086177826  0.8588972091674805  0.989014744758606  1.0000
  Si  Si1       1.0  0.9707712531089783  0.35898086428642273  0.48916059732437134  1.0000
  Si  Si2       1.0  0.9708590507507324  0.3588669598102569  0.8960996866226196  1.0000
  O   O1        1.0  0.4707777202129364  0.858978807926178  0.6937944293022156  1.0000
