data_image198
_chemical_formula_structural       SiCaO4TiOSiO
_chemical_formula_sum              "Si2 Ca1 O6 Ti1"
_cell_length_a       4.932959985125706
_cell_length_b       4.933316051505564
_cell_length_c       5.613685607910156
_cell_angle_alpha    63.888135291060266
_cell_angle_beta     63.893528081528316
_cell_angle_gamma    59.797385587055075

_space_group_name_H-M_alt    "P 1"
_space_group_IT_number       1

loop_
  _space_group_symop_operation_xyz
  'x, y, z'

loop_
  _atom_site_type_symbol
  _atom_site_label
  _atom_site_symmetry_multiplicity
  _atom_site_fract_x
  _atom_site_fract_y
  _atom_site_fract_z
  _atom_site_occupancy
  Si  Si1       1.0  0.18927884101867676  0.9203605651855469  0.22088705003261566  1.0000
  Ca  Ca1       1.0  0.7172836065292358  0.44782432913780207  0.638083815574646  1.0000
  O   O1        1.0  0.35546144843101507  0.5194056034088135  0.45459768176078796  1.0000
  O   O2        1.0  0.9119599461555481  0.28708672523498535  0.03547144681215286  1.0000
  O   O3        1.0  0.5574703216552734  0.018368100747466087  0.03412914648652077  1.0000
  O   O4        1.0  0.7887476682662963  0.9214602708816528  0.45313534140586853  1.0000
  Ti  Ti1       1.0  0.9902939200401308  0.721710979938507  0.8190023303031921  1.0000
  O   O5        1.0  0.2867881655693055  0.6432161331176758  0.03424423187971115  1.0000
  Si  Si2       1.0  0.5087134838104248  0.23880980908870697  0.263964593410492  1.0000
  O   O6        1.0  0.19157755374908447  0.08554874360561371  0.45537030696868896  1.0000
