data_image523
_chemical_formula_structural       CaTiSiO6
_chemical_formula_sum              "Ca1 Ti1 Si1 O6"
_cell_length_a       4.986536274718986
_cell_length_b       5.015171094418528
_cell_length_c       5.01495361328125
_cell_angle_alpha    119.97708024386435
_cell_angle_beta     90.08866518645901
_cell_angle_gamma    90.04775235584812

_space_group_name_H-M_alt    "P 1"
_space_group_IT_number       1

loop_
  _space_group_symop_operation_xyz
  'x, y, z'

loop_
  _atom_site_type_symbol
  _atom_site_label
  _atom_site_symmetry_multiplicity
  _atom_site_fract_x
  _atom_site_fract_y
  _atom_site_fract_z
  _atom_site_occupancy
  Ca  Ca1       1.0  0.918434202671051  0.030342886224389076  0.145511656999588  1.0000
  Ti  Ti1       1.0  0.4183320105075836  0.3646010160446167  0.8132549524307251  1.0000
  Si  Si1       1.0  0.4182122051715851  0.6967349648475647  0.4795115888118744  1.0000
  O   O1        1.0  0.6232935786247253  0.4178840219974517  0.5080456137657166  1.0000
  O   O2        1.0  0.21436260640621185  0.41759324073791504  0.171303391456604  1.0000
  O   O3        1.0  0.21411453187465668  0.6689693331718445  0.7591392993927001  1.0000
  O   O4        1.0  0.21401254832744598  0.005408508703112601  0.5083412528038025  1.0000
  O   O5        1.0  0.6219730973243713  0.00527501106262207  0.7583650350570679  1.0000
  O   O6        1.0  0.6223560571670532  0.667912721633911  0.1710191369056701  1.0000
