data_image129
_chemical_formula_structural       OSiCaO
_chemical_formula_sum              "O2 Si1 Ca1"
_cell_length_a       3.5610145231326626
_cell_length_b       3.5668858631450844
_cell_length_c       6.064669132232666
_cell_angle_alpha    72.80777314515475
_cell_angle_beta     72.86046333616642
_cell_angle_gamma    60.07777066616604

_space_group_name_H-M_alt    "P 1"
_space_group_IT_number       1

loop_
  _space_group_symop_operation_xyz
  'x, y, z'

loop_
  _atom_site_type_symbol
  _atom_site_label
  _atom_site_symmetry_multiplicity
  _atom_site_fract_x
  _atom_site_fract_y
  _atom_site_fract_z
  _atom_site_occupancy
  O   O1        1.0  0.8270295262336733  0.8314198851585388  0.3756985366344452  1.0000
  Si  Si1       1.0  0.7309672236442567  0.7353720664978027  0.6657009124755859  1.0000
  Ca  Ca1       1.0  0.23006704449653625  0.23510794341564178  0.1663840413093567  1.0000
  O   O2        1.0  0.633338987827301  0.638857364654541  0.9571186304092407  1.0000
