data_image215
_chemical_formula_structural       OCa2TiO7Si
_chemical_formula_sum              "O8 Ca2 Ti1 Si1"
_cell_length_a       6.118443571689563
_cell_length_b       6.119577339103519
_cell_length_c       6.11707878112793
_cell_angle_alpha    106.9589661395967
_cell_angle_beta     107.11711868556456
_cell_angle_gamma    114.59848647842396

_space_group_name_H-M_alt    "P 1"
_space_group_IT_number       1

loop_
  _space_group_symop_operation_xyz
  'x, y, z'

loop_
  _atom_site_type_symbol
  _atom_site_label
  _atom_site_symmetry_multiplicity
  _atom_site_fract_x
  _atom_site_fract_y
  _atom_site_fract_z
  _atom_site_occupancy
  O   O1        1.0  0.17430627346038818  0.2761550545692444  0.42484918236732483  1.0000
  Ca  Ca1       1.0  0.8532568216323853  0.1463698148727417  0.6139640212059021  1.0000
  Ca  Ca2       1.0  0.10339483618736259  0.8959766030311583  0.11411721259355545  1.0000
  Ti  Ti1       1.0  0.3522692024707794  0.6449600458145142  0.6137181520462036  1.0000
  O   O2        1.0  0.7600731253623962  0.37412068247795105  0.9389287829399109  1.0000
  O   O3        1.0  0.3439622223377228  0.827277660369873  0.4252002239227295  1.0000
  O   O4        1.0  0.17217549681663505  0.6560629010200499  0.802232563495636  1.0000
  O   O5        1.0  0.7224282026290894  0.8245874643325806  0.8033218383789062  1.0000
  O   O6        1.0  0.6243265271186829  0.2396069765090942  0.2881840169429779  1.0000
  O   O7        1.0  0.27228713035583496  0.2408730536699295  0.9383032917976379  1.0000
  O   O8        1.0  0.7596210837364197  0.7285752892494202  0.29110628366470337  1.0000
  Si  Si1       1.0  0.6045439839363098  0.39714136719703674  0.11402233690023422  1.0000
