data_image214
_chemical_formula_structural       SiO2SiOTiO2CaO3
_chemical_formula_sum              "Si2 O8 Ti1 Ca1"
_cell_length_a       5.645782196957683
_cell_length_b       5.647845775674865
_cell_length_c       5.654592990875244
_cell_angle_alpha    106.4448780694797
_cell_angle_beta     106.41134763036648
_cell_angle_gamma    115.54500002240763

_space_group_name_H-M_alt    "P 1"
_space_group_IT_number       1

loop_
  _space_group_symop_operation_xyz
  'x, y, z'

loop_
  _atom_site_type_symbol
  _atom_site_label
  _atom_site_symmetry_multiplicity
  _atom_site_fract_x
  _atom_site_fract_y
  _atom_site_fract_z
  _atom_site_occupancy
  Si  Si1       1.0  0.8982033729553223  0.9274079799652098  0.6892865300178527  1.0000
  O   O1        1.0  0.3097192645072937  0.6410055160522461  0.9901354312896727  1.0000
  O   O2        1.0  0.9128115177154541  0.11567573994398116  0.516794741153717  1.0000
  Si  Si2       1.0  0.14809663593769068  0.6777338385581969  0.19001208245754234  1.0000
  O   O3        1.0  0.7871235609054565  0.5171836018562317  0.9920661449432372  1.0000
  Ti  Ti1       1.0  0.39820700883865356  0.4298296868801117  0.6902613639831543  1.0000
  O   O4        1.0  0.7109545469284058  0.9135653376579284  0.8626199960708617  1.0000
  O   O5        1.0  0.3097245693206787  0.03948439285159111  0.3888498544692993  1.0000
  Ca  Ca1       1.0  0.6481000781059265  0.17821720242500302  0.18996867537498474  1.0000
  O   O6        1.0  0.7111331820487976  0.5672121644020081  0.5178972482681274  1.0000
  O   O7        1.0  0.25955715775489807  0.1155642420053482  0.8621501326560973  1.0000
  O   O8        1.0  0.1849835216999054  0.5160567760467529  0.38918280601501465  1.0000
