data_image112
_chemical_formula_structural       SiCaOCaO2TiSiCaO5CaSiO4
_chemical_formula_sum              "Si3 Ca4 O12 Ti1"
_cell_length_a       5.3884623387143655
_cell_length_b       6.527857979451311
_cell_length_c       9.577835083007812
_cell_angle_alpha    61.23085634699967
_cell_angle_beta     79.98816032621927
_cell_angle_gamma    67.03567017927543

_space_group_name_H-M_alt    "P 1"
_space_group_IT_number       1

loop_
  _space_group_symop_operation_xyz
  'x, y, z'

loop_
  _atom_site_type_symbol
  _atom_site_label
  _atom_site_symmetry_multiplicity
  _atom_site_fract_x
  _atom_site_fract_y
  _atom_site_fract_z
  _atom_site_occupancy
  Si  Si1       1.0  0.4726591408252716  0.4187923967838288  0.27784624695777893  1.0000
  Ca  Ca1       1.0  0.036840468645095825  0.32797205448150635  0.20021775364875793  1.0000
  O   O1        1.0  0.6562068462371825  0.27297571301460266  0.17060378193855286  1.0000
  Ca  Ca2       1.0  0.6058508157730101  0.8666205406188966  0.35479128360748285  1.0000
  O   O2        1.0  0.343252032995224  0.07202988862991333  0.09191238135099411  1.0000
  O   O3        1.0  0.24317525327205655  0.671626091003418  0.14977799355983734  1.0000
  Ti  Ti1       1.0  0.2420501857995987  0.987032949924469  0.9684874415397644  1.0000
  Si  Si2       1.0  0.8527456521987915  0.8370153307914734  0.8456636667251587  1.0000
  Ca  Ca3       1.0  0.520048975944519  0.40023100376129156  0.9134004712104797  1.0000
  O   O4        1.0  0.958813965320587  0.8799836635589601  0.6602027416229248  1.0000
  O   O5        1.0  0.02257574908435344  0.6884618997573853  0.467224657535553  1.0000
  O   O6        1.0  0.5407271981239319  0.8345078825950623  0.8720862865447998  1.0000
  O   O7        1.0  0.6793855428695679  0.4822828471660614  0.34645703434944153  1.0000
  O   O8        1.0  0.062493264675140395  0.5752290487289429  0.954419732093811  1.0000
  Ca  Ca4       1.0  0.9624971151351929  0.3019088506698609  0.5744463205337524  1.0000
  Si  Si3       1.0  0.1679992228746414  0.6268739700317383  0.6245080232620239  1.0000
  O   O9        1.0  0.31555297970771784  0.22833056747913363  0.4017057418823242  1.0000
  O   O10       1.0  0.4777110815048218  0.6172047257423401  0.6168906688690186  1.0000
  O   O11       1.0  0.8750455975532532  0.062134981155395515  0.8698990345001221  1.0000
  O   O12       1.0  0.16928529739379883  0.34363263845443726  0.7650775909423828  1.0000
