data_image24
_chemical_formula_structural       CaOSiOSiOTiO2
_chemical_formula_sum              "Ca1 O5 Si2 Ti1"
_cell_length_a       5.166631478688842
_cell_length_b       5.632978217588829
_cell_length_c       6.102030277252197
_cell_angle_alpha    107.43674477244618
_cell_angle_beta     103.79237985812127
_cell_angle_gamma    119.05809744693298

_space_group_name_H-M_alt    "P 1"
_space_group_IT_number       1

loop_
  _space_group_symop_operation_xyz
  'x, y, z'

loop_
  _atom_site_type_symbol
  _atom_site_label
  _atom_site_symmetry_multiplicity
  _atom_site_fract_x
  _atom_site_fract_y
  _atom_site_fract_z
  _atom_site_occupancy
  Ca  Ca1       1.0  0.40620526671409607  0.5005569458007812  0.6740589737892151  1.0000
  O   O1        1.0  0.46623921394348145  0.1740592122077942  0.3630833327770233  1.0000
  Si  Si1       1.0  0.6305132508277893  0.005148410797119141  0.4798071086406708  1.0000
  O   O2        1.0  0.4937377870082855  0.26588359475135803  0.9565885066986084  1.0000
  Si  Si2       1.0  0.2606421411037445  0.03425745666027069  0.045383363962173476  1.0000
  O   O3        1.0  0.297896146774292  0.6475977897644043  0.36772945523262024  1.0000
  Ti  Ti1       1.0  0.9246941208839417  0.3568434119224548  0.9891873002052308  1.0000
  O   O4        1.0  0.1555868983268737  0.6808004975318908  0.8981841206550598  1.0000
  O   O5        1.0  0.9160121083259583  0.003070410573855042  0.9845883250236512  1.0000
