data_image212
_chemical_formula_structural       CaTiO3SiO2SiO
_chemical_formula_sum              "Ca1 Ti1 O6 Si2"
_cell_length_a       4.1668712867135795
_cell_length_b       4.212684057461887
_cell_length_c       8.18663215637207
_cell_angle_alpha    101.74952594086828
_cell_angle_beta     102.52226512673984
_cell_angle_gamma    81.04849381464389

_space_group_name_H-M_alt    "P 1"
_space_group_IT_number       1

loop_
  _space_group_symop_operation_xyz
  'x, y, z'

loop_
  _atom_site_type_symbol
  _atom_site_label
  _atom_site_symmetry_multiplicity
  _atom_site_fract_x
  _atom_site_fract_y
  _atom_site_fract_z
  _atom_site_occupancy
  Ca  Ca1       1.0  0.07500360161066055  0.7087562084197998  0.6933526992797852  1.0000
  Ti  Ti1       1.0  0.5092712640762329  0.1681857854127884  0.5424550175666809  1.0000
  O   O1        1.0  0.08463507890701294  0.16131874918937683  0.5677067637443542  1.0000
  O   O2        1.0  0.7776021361351013  0.5049999356269836  0.10845303535461426  1.0000
  O   O3        1.0  0.5114341378211975  0.00474686361849308  0.31560659408569336  1.0000
  Si  Si1       1.0  0.8197162747383118  0.1413843035697937  0.996587336063385  1.0000
  O   O4        1.0  0.5326725244522095  0.6022793650627136  0.5674188733100891  1.0000
  O   O5        1.0  0.18955542147159574  0.9167202711105347  0.9980830550193787  1.0000
  Si  Si2       1.0  0.5597776174545288  0.8658944964408875  0.12344875931739807  1.0000
  O   O6        1.0  0.6847245097160339  0.1442604511976242  0.7945915460586548  1.0000
