data_image483
_chemical_formula_structural       CaTiSiO
_chemical_formula_sum              "Ca1 Ti1 Si1 O1"
_cell_length_a       3.189112941017865
_cell_length_b       3.1916029205138914
_cell_length_c       7.10855770111084
_cell_angle_alpha    77.07109613091643
_cell_angle_beta     77.07565268056172
_cell_angle_gamma    60.06243704020763

_space_group_name_H-M_alt    "P 1"
_space_group_IT_number       1

loop_
  _space_group_symop_operation_xyz
  'x, y, z'

loop_
  _atom_site_type_symbol
  _atom_site_label
  _atom_site_symmetry_multiplicity
  _atom_site_fract_x
  _atom_site_fract_y
  _atom_site_fract_z
  _atom_site_occupancy
  Ca  Ca1       1.0  0.5358400940895082  0.9646028876304625  0.767241597175598  1.0000
  Ti  Ti1       1.0  0.9999607801437378  0.4283713400363922  0.3748024106025695  1.0000
  Si  Si1       1.0  0.7571597695350647  0.18605023622512817  0.10313971340656279  1.0000
  O   O1        1.0  0.2753342390060424  0.703421950340271  0.5490226745605469  1.0000
