data_image584
_chemical_formula_structural       Ca3Ti2SiOCaSiO
_chemical_formula_sum              "Ca4 Ti2 Si2 O2"
_cell_length_a       4.016868076067881
_cell_length_b       4.02067328614773
_cell_length_c       12.776801109313965
_cell_angle_alpha    99.05342537960361
_cell_angle_beta     98.97826572430142
_cell_angle_gamma    90.02354613330272

_space_group_name_H-M_alt    "P 1"
_space_group_IT_number       1

loop_
  _space_group_symop_operation_xyz
  'x, y, z'

loop_
  _atom_site_type_symbol
  _atom_site_label
  _atom_site_symmetry_multiplicity
  _atom_site_fract_x
  _atom_site_fract_y
  _atom_site_fract_z
  _atom_site_occupancy
  Ca  Ca1       1.0  0.22770293056964871  0.5540004968643187  0.449520468711853  1.0000
  Ca  Ca2       1.0  0.8206868171691893  0.1476748287677765  0.6344882845878601  1.0000
  Ca  Ca3       1.0  0.6372060775756835  0.9647032022476195  0.269054651260376  1.0000
  Ti  Ti1       1.0  0.9300993680953978  0.7571414709091185  0.8532036542892456  1.0000
  Ti  Ti2       1.0  0.42949348688125605  0.2574283182621002  0.8533579707145691  1.0000
  Si  Si1       1.0  0.5021364688873291  0.8287881612777709  0.997429609298706  1.0000
  O   O1        1.0  0.7260661721229552  0.05276263132691383  0.4450012445449829  1.0000
  Ca  Ca4       1.0  0.03541059046983719  0.3629391193389892  0.06597433239221573  1.0000
  Si  Si2       1.0  0.35579040646553034  0.683265209197998  0.7050556540489197  1.0000
  O   O2        1.0  0.9302196502685546  0.25791561603546137  0.8551301956176758  1.0000
