data_image213
_chemical_formula_structural       OSiCaTi
_chemical_formula_sum              "O1 Si1 Ca1 Ti1"
_cell_length_a       2.967389729047283
_cell_length_b       3.458638214007447
_cell_length_c       6.735870361328125
_cell_angle_alpha    104.91005764444698
_cell_angle_beta     102.69885351972773
_cell_angle_gamma    90.00949661071031

_space_group_name_H-M_alt    "P 1"
_space_group_IT_number       1

loop_
  _space_group_symop_operation_xyz
  'x, y, z'

loop_
  _atom_site_type_symbol
  _atom_site_label
  _atom_site_symmetry_multiplicity
  _atom_site_fract_x
  _atom_site_fract_y
  _atom_site_fract_z
  _atom_site_occupancy
  O   O1        1.0  0.1727704107761383  0.8010017871856688  0.3018876314163208  1.0000
  Si  Si1       1.0  0.38763153553009033  0.5161266922950744  0.7332652807235717  1.0000
  Ca  Ca1       1.0  0.054728858172893524  0.18183864653110504  0.06319038569927216  1.0000
  Ti  Ti1       1.0  0.7736124992370605  0.9013853073120117  0.5030140280723572  1.0000
