data_image555
_chemical_formula_structural       CaTiOSi
_chemical_formula_sum              "Ca1 Ti1 O1 Si1"
_cell_length_a       3.392587209215338
_cell_length_b       3.399504847750287
_cell_length_c       7.653893947601318
_cell_angle_alpha    77.27342035174418
_cell_angle_beta     77.28018227002656
_cell_angle_gamma    60.31020819552976

_space_group_name_H-M_alt    "P 1"
_space_group_IT_number       1

loop_
  _space_group_symop_operation_xyz
  'x, y, z'

loop_
  _atom_site_type_symbol
  _atom_site_label
  _atom_site_symmetry_multiplicity
  _atom_site_fract_x
  _atom_site_fract_y
  _atom_site_fract_z
  _atom_site_occupancy
  Ca  Ca1       1.0  0.09855753928422929  0.6043598055839539  0.9062619805335997  1.0000
  Ti  Ti1       1.0  0.8978540897369385  0.40697133541107183  0.5085616707801819  1.0000
  O   O1        1.0  0.7180116772651672  0.22422713041305542  0.04760134220123292  1.0000
  Si  Si1       1.0  0.6387320160865784  0.1459633857011795  0.28649383783340454  1.0000
