data_image107
_chemical_formula_structural       OTiCaSiO2CaO2SiO2
_chemical_formula_sum              "O7 Ti1 Ca2 Si2"
_cell_length_a       5.423624154411101
_cell_length_b       5.420686905698278
_cell_length_c       7.69048547744751
_cell_angle_alpha    69.50632530480044
_cell_angle_beta     69.62859991371519
_cell_angle_gamma    60.183187469652715

_space_group_name_H-M_alt    "P 1"
_space_group_IT_number       1

loop_
  _space_group_symop_operation_xyz
  'x, y, z'

loop_
  _atom_site_type_symbol
  _atom_site_label
  _atom_site_symmetry_multiplicity
  _atom_site_fract_x
  _atom_site_fract_y
  _atom_site_fract_z
  _atom_site_occupancy
  O   O1        1.0  0.9073861837387085  0.812565267086029  0.1978184282779693  1.0000
  Ti  Ti1       1.0  0.7322607040405273  0.10957527905702591  0.37280985713005066  1.0000
  Ca  Ca1       1.0  0.44599756598472595  0.8252379298210144  0.22646598517894745  1.0000
  Si  Si1       1.0  0.3101220726966858  0.6879392266273499  0.6425995826721191  1.0000
  O   O2        1.0  0.43486055731773376  0.4057880640029907  0.19879816472530365  1.0000
  O   O3        1.0  0.23122529685497284  0.6095274686813354  0.8748666048049927  1.0000
  Ca  Ca2       1.0  0.015595141798257835  0.3953940272331238  0.5243000388145447  1.0000
  O   O4        1.0  0.5574713945388795  0.8126473426818848  0.5530356764793396  1.0000
  O   O5        1.0  0.4348303973674774  0.40446799993515015  0.5522950291633606  1.0000
  Si  Si2       1.0  0.15220898389816281  0.5320698022842407  0.10792173445224762  1.0000
  O   O6        1.0  0.02774635329842568  0.285376638174057  0.19711026549339294  1.0000
  O   O7        1.0  0.028670499101281128  0.9347832798957826  0.5520614385604858  1.0000
