data_image363
_chemical_formula_structural       TiCaOSi
_chemical_formula_sum              "Ti1 Ca1 O1 Si1"
_cell_length_a       3.205708134348796
_cell_length_b       3.208217177651485
_cell_length_c       7.121852397918701
_cell_angle_alpha    77.03657020502203
_cell_angle_beta     77.05492280853696
_cell_angle_gamma    60.064444847527874

_space_group_name_H-M_alt    "P 1"
_space_group_IT_number       1

loop_
  _space_group_symop_operation_xyz
  'x, y, z'

loop_
  _atom_site_type_symbol
  _atom_site_label
  _atom_site_symmetry_multiplicity
  _atom_site_fract_x
  _atom_site_fract_y
  _atom_site_fract_z
  _atom_site_occupancy
  Ti  Ti1       1.0  0.25797370076179504  0.008932683616876602  0.9489755630493164  1.0000
  Ca  Ca1       1.0  0.7932757139205933  0.5453892350196838  0.3414367437362671  1.0000
  O   O1        1.0  0.5328752994537354  0.28411129117012024  0.1243300512433052  1.0000
  Si  Si1       1.0  0.015368686988949777  0.7663758397102356  0.6770328283309937  1.0000
