data_image307
_chemical_formula_structural       SiTiO2
_chemical_formula_sum              "Si1 Ti1 O2"
_cell_length_a       2.8931317871757907
_cell_length_b       2.906194110804184
_cell_length_c       6.230096817016602
_cell_angle_alpha    76.53371135709952
_cell_angle_beta     76.48630953369714
_cell_angle_gamma    59.98303032330841

_space_group_name_H-M_alt    "P 1"
_space_group_IT_number       1

loop_
  _space_group_symop_operation_xyz
  'x, y, z'

loop_
  _atom_site_type_symbol
  _atom_site_label
  _atom_site_symmetry_multiplicity
  _atom_site_fract_x
  _atom_site_fract_y
  _atom_site_fract_z
  _atom_site_occupancy
  Si  Si1       1.0  0.4968128800392151  0.13080531358718872  0.9814677834510804  1.0000
  Ti  Ti1       1.0  0.9961760640144348  0.6310014128684998  0.4809128940105438  1.0000
  O   O1        1.0  0.39890816807746887  0.03429592028260231  0.2751864790916443  1.0000
  O   O2        1.0  0.5945120453834534  0.22793386876583102  0.6876925826072693  1.0000
