data_image574
_chemical_formula_structural       SiTiCaO6
_chemical_formula_sum              "Si1 Ti1 Ca1 O6"
_cell_length_a       4.9747901158869645
_cell_length_b       5.021384249344176
_cell_length_c       5.024137496948242
_cell_angle_alpha    119.99454051364793
_cell_angle_beta     90.0616586170838
_cell_angle_gamma    90.05599639663967

_space_group_name_H-M_alt    "P 1"
_space_group_IT_number       1

loop_
  _space_group_symop_operation_xyz
  'x, y, z'

loop_
  _atom_site_type_symbol
  _atom_site_label
  _atom_site_symmetry_multiplicity
  _atom_site_fract_x
  _atom_site_fract_y
  _atom_site_fract_z
  _atom_site_occupancy
  Si  Si1       1.0  0.5292501449584961  0.4767677783966064  0.5989640355110168  1.0000
  Ti  Ti1       1.0  0.5291103720664978  0.8104095458984375  0.26561158895492554  1.0000
  Ca  Ca1       1.0  0.02915905974805355  0.1435547024011612  0.9330381155014037  1.0000
  O   O1        1.0  0.32468652725219727  0.16909241676330566  0.5710439682006836  1.0000
  O   O2        1.0  0.3259829878807068  0.7572489976882933  0.9077410697937011  1.0000
  O   O3        1.0  0.325776070356369  0.5048444271087646  0.31960606575012207  1.0000
  O   O4        1.0  0.7327507734298706  0.16839864850044248  0.3188444972038269  1.0000
  O   O5        1.0  0.7328165769577026  0.7562759518623352  0.5712853074073792  1.0000
  O   O6        1.0  0.733171284198761  0.5046600103378296  0.9068954586982726  1.0000
