data_image165
_chemical_formula_structural       CaOSiOCaSiO4
_chemical_formula_sum              "Ca2 O6 Si2"
_cell_length_a       5.110487093617417
_cell_length_b       5.124462961133917
_cell_length_c       5.116915702819824
_cell_angle_alpha    59.97154727738393
_cell_angle_beta     89.89146396812279
_cell_angle_gamma    60.01368522445536

_space_group_name_H-M_alt    "P 1"
_space_group_IT_number       1

loop_
  _space_group_symop_operation_xyz
  'x, y, z'

loop_
  _atom_site_type_symbol
  _atom_site_label
  _atom_site_symmetry_multiplicity
  _atom_site_fract_x
  _atom_site_fract_y
  _atom_site_fract_z
  _atom_site_occupancy
  Ca  Ca1       1.0  0.8898584246635437  0.5773237943649293  0.8319225311279297  1.0000
  O   O1        1.0  0.4115116596221924  0.05782975256443024  0.8287899494171143  1.0000
  Si  Si1       1.0  0.1398211121559143  0.07710561156272888  0.581821084022522  1.0000
  O   O2        1.0  0.9148329496383667  0.05279626324772835  0.8575505018234253  1.0000
  Ca  Ca2       1.0  0.38971424102783203  0.5776761770248413  0.33179283142089844  1.0000
  Si  Si2       1.0  0.6399418115615845  0.07715582102537157  0.0814998671412468  1.0000
  O   O3        1.0  0.36468896269798284  0.10199332982301712  0.30663788318634033  1.0000
  O   O4        1.0  0.867799699306488  0.09652971476316453  0.33490315079689026  1.0000
  O   O5        1.0  0.8875675797462463  0.5761132240295411  0.3545871973037719  1.0000
  O   O6        1.0  0.3920159339904785  0.5786450505256653  0.8096140027046204  1.0000
