data_image14
_chemical_formula_structural       TiSiCaTiSiO
_chemical_formula_sum              "Ti2 Si2 Ca1 O1"
_cell_length_a       4.104634775202573
_cell_length_b       4.103881905239726
_cell_length_c       5.722762584686279
_cell_angle_alpha    89.98947035343735
_cell_angle_beta     89.99537163628845
_cell_angle_gamma    90.00173054230221

_space_group_name_H-M_alt    "P 1"
_space_group_IT_number       1

loop_
  _space_group_symop_operation_xyz
  'x, y, z'

loop_
  _atom_site_type_symbol
  _atom_site_label
  _atom_site_symmetry_multiplicity
  _atom_site_fract_x
  _atom_site_fract_y
  _atom_site_fract_z
  _atom_site_occupancy
  Ti  Ti1       1.0  0.771248459815979  0.5268623232841492  0.6337793469429016  1.0000
  Si  Si1       1.0  0.2715151011943817  0.5269290804862976  0.33950430154800415  1.0000
  Ca  Ca1       1.0  0.7714462876319885  0.026860613375902176  0.13305124640464783  1.0000
  Ti  Ti2       1.0  0.2717491388320923  0.026653479784727097  0.6333290934562683  1.0000
  Si  Si2       1.0  0.2715041935443878  0.5270003080368042  0.9282389283180237  1.0000
  O   O1        1.0  0.7718020081520081  0.027106519788503647  0.6323731541633606  1.0000
