data_image467
_chemical_formula_structural       OSiOSiCaOTiO5
_chemical_formula_sum              "O8 Si2 Ca1 Ti1"
_cell_length_a       5.644083401690798
_cell_length_b       5.643091209738243
_cell_length_c       5.653398036956787
_cell_angle_alpha    106.43668153824426
_cell_angle_beta     106.47275212040756
_cell_angle_gamma    115.5794104916408

_space_group_name_H-M_alt    "P 1"
_space_group_IT_number       1

loop_
  _space_group_symop_operation_xyz
  'x, y, z'

loop_
  _atom_site_type_symbol
  _atom_site_label
  _atom_site_symmetry_multiplicity
  _atom_site_fract_x
  _atom_site_fract_y
  _atom_site_fract_z
  _atom_site_occupancy
  O   O1        1.0  0.3536081910133362  0.8760726451873779  0.5301690101623535  1.0000
  Si  Si1       1.0  0.9920887947082518  0.6877255439758301  0.3577725887298584  1.0000
  O   O2        1.0  0.8801258206367492  0.27548515796661377  0.6601232290267944  1.0000
  Si  Si2       1.0  0.2421090602874756  0.43793982267379766  0.8581647276878357  1.0000
  Ca  Ca1       1.0  0.7417923808097839  0.9376601576805116  0.8578205704689026  1.0000
  O   O3        1.0  0.4049343764781952  0.8001471161842346  0.056568227708339726  1.0000
  Ti  Ti1       1.0  0.49141854047775263  0.18948158621788025  0.35806646943092346  1.0000
  O   O4        1.0  0.006066499743610583  0.8751704692840576  0.18513388931751254  1.0000
  O   O5        1.0  0.804440975189209  0.6727144122123718  0.5303847789764404  1.0000
  O   O6        1.0  0.4042913019657135  0.40195855498313904  0.6584612727165222  1.0000
  O   O7        1.0  0.2789095938205719  0.2753206491470337  0.05773872137069702  1.0000
  O   O8        1.0  0.8061231970787048  0.3276328146457672  0.18657243251800537  1.0000
