data_image379
_chemical_formula_structural       TiSiOSiCaSiCaOSiO2CaO8
_chemical_formula_sum              "Ti1 Si4 O12 Ca3"
_cell_length_a       5.759854254738531
_cell_length_b       6.373351296316673
_cell_length_c       9.406182289123535
_cell_angle_alpha    94.5365050563474
_cell_angle_beta     112.28162214367197
_cell_angle_gamma    100.40057121587468

_space_group_name_H-M_alt    "P 1"
_space_group_IT_number       1

loop_
  _space_group_symop_operation_xyz
  'x, y, z'

loop_
  _atom_site_type_symbol
  _atom_site_label
  _atom_site_symmetry_multiplicity
  _atom_site_fract_x
  _atom_site_fract_y
  _atom_site_fract_z
  _atom_site_occupancy
  Ti  Ti1       1.0  0.7867200374603271  0.2444031685590744  0.17301259934902188  1.0000
  Si  Si1       1.0  0.09205653518438339  0.3792222738265991  0.48064276576042175  1.0000
  O   O1        1.0  0.9834743142127991  0.8682535886764527  0.5997388362884521  1.0000
  Si  Si2       1.0  0.4438186287879944  0.7712112069129944  0.13120971620082855  1.0000
  Ca  Ca1       1.0  0.20414157211780548  0.869705319404602  0.42614591121673584  1.0000
  Si  Si3       1.0  0.8827837705612183  0.06718578934669495  0.6639419794082642  1.0000
  Ca  Ca2       1.0  0.638448178768158  0.5562013983726501  0.47236189246177673  1.0000
  O   O2        1.0  0.937804639339447  0.31238460540771484  0.036728695034980774  1.0000
  Si  Si4       1.0  0.19279740750789642  0.33289566636085505  0.9989343881607056  1.0000
  O   O3        1.0  0.6188501119613647  0.9314101934432983  0.08377280831336974  1.0000
  O   O4        1.0  0.4446398913860321  0.2922804057598114  0.13804589211940765  1.0000
  Ca  Ca3       1.0  0.3865567445755005  0.8347547054290773  0.7963636517524719  1.0000
  O   O5        1.0  0.5929120182991028  0.0027271544095128775  0.6572511196136475  1.0000
  O   O6        1.0  0.9182988405227661  0.5108938813209534  0.3486447334289551  1.0000
  O   O7        1.0  0.8979190587997437  0.27923399209976196  0.5655261874198914  1.0000
  O   O8        1.0  0.1216706857085228  0.16391560435295105  0.8389581441879272  1.0000
  O   O9        1.0  0.4435814619064331  0.7607952356338501  0.29311373829841614  1.0000
  O   O10       1.0  0.10568524152040482  0.186561644077301  0.36066964268684387  1.0000
  O   O11       1.0  0.27352866530418396  0.5921867489814758  0.9768832921981812  1.0000
  O   O12       1.0  0.3494039475917816  0.5533992648124695  0.5951896905899048  1.0000
