data_image223
_chemical_formula_structural       SiCa2OSiO3TiO4
_chemical_formula_sum              "Si2 Ca2 O8 Ti1"
_cell_length_a       5.520274678614058
_cell_length_b       4.99668519151894
_cell_length_c       7.1028618812561035
_cell_angle_alpha    109.66451828167261
_cell_angle_beta     98.50145053793538
_cell_angle_gamma    81.54823790254187

_space_group_name_H-M_alt    "P 1"
_space_group_IT_number       1

loop_
  _space_group_symop_operation_xyz
  'x, y, z'

loop_
  _atom_site_type_symbol
  _atom_site_label
  _atom_site_symmetry_multiplicity
  _atom_site_fract_x
  _atom_site_fract_y
  _atom_site_fract_z
  _atom_site_occupancy
  Si  Si1       1.0  0.34956282377243036  0.824702024459839  0.6824582815170288  1.0000
  Ca  Ca1       1.0  0.7447232604026794  0.3540465533733368  0.829617977142334  1.0000
  Ca  Ca2       1.0  0.6279032230377197  0.9813035726547242  0.16346028447151184  1.0000
  O   O1        1.0  0.11769622564315795  0.06893463432788849  0.7312725186347961  1.0000
  Si  Si2       1.0  0.25373002886772156  0.5571028590202332  0.2026754468679428  1.0000
  O   O2        1.0  0.3305197060108185  0.8207046389579774  0.43317246437072754  1.0000
  O   O3        1.0  0.9887008070945739  0.6689887642860414  0.1083340048789978  1.0000
  O   O4        1.0  0.49609345197677607  0.5243715643882751  0.09219735115766525  1.0000
  Ti  Ti1       1.0  0.13213759660720825  0.2144886702299118  0.49306148290634155  1.0000
  O   O5        1.0  0.6044179797172546  0.9085543155670166  0.815485954284668  1.0000
  O   O6        1.0  0.24213936924934384  0.26056256890296936  0.26059404015541077  1.0000
  O   O7        1.0  0.3082615435123443  0.5050981640815736  0.6707597970962524  1.0000
  O   O8        1.0  0.8143986463546752  0.27273622155189514  0.46781015396118164  1.0000
