data_image294
_chemical_formula_structural       OTiCaSiO3SiO3
_chemical_formula_sum              "O7 Ti1 Ca1 Si2"
_cell_length_a       4.65121352231319
_cell_length_b       5.401102735820355
_cell_length_c       5.403398036956787
_cell_angle_alpha    102.33175761695679
_cell_angle_beta     96.66432069666571
_cell_angle_gamma    96.68758431941873

_space_group_name_H-M_alt    "P 1"
_space_group_IT_number       1

loop_
  _space_group_symop_operation_xyz
  'x, y, z'

loop_
  _atom_site_type_symbol
  _atom_site_label
  _atom_site_symmetry_multiplicity
  _atom_site_fract_x
  _atom_site_fract_y
  _atom_site_fract_z
  _atom_site_occupancy
  O   O1        1.0  0.756576657295227  0.3874640464782715  0.8966776132583618  1.0000
  Ti  Ti1       1.0  0.5531669855117798  0.5711773633956909  0.15435902774333954  1.0000
  Ca  Ca1       1.0  0.5527540445327759  0.9677809476852417  0.7584503889083862  1.0000
  Si  Si1       1.0  0.13146378099918365  0.03264404088258743  0.2655004858970642  1.0000
  O   O2        1.0  0.052970267832279205  0.17655454576015472  0.5502986311912537  1.0000
  O   O3        1.0  0.7908899188041687  0.5873475670814514  0.4823516607284546  1.0000
  O   O4        1.0  0.34970298409461975  0.8298236131668091  0.3399554193019867  1.0000
  Si  Si2       1.0  0.9749732613563538  0.4604893326759339  0.6936812400817871  1.0000
  O   O5        1.0  0.8270195126533508  0.880557656288147  0.09483159333467484  1.0000
  O   O6        1.0  0.278872549533844  0.6318327188491821  0.8466212749481201  1.0000
  O   O7        1.0  0.3157013952732087  0.24421536922454837  0.1402866542339325  1.0000
