data_image527
_chemical_formula_structural       CaOTiSiO2
_chemical_formula_sum              "Ca1 O3 Ti1 Si1"
_cell_length_a       3.2097662125417266
_cell_length_b       5.381238349559701
_cell_length_c       5.379446983337402
_cell_angle_alpha    120.74968711582764
_cell_angle_beta     90.05527239204251
_cell_angle_gamma    90.0744857249684

_space_group_name_H-M_alt    "P 1"
_space_group_IT_number       1

loop_
  _space_group_symop_operation_xyz
  'x, y, z'

loop_
  _atom_site_type_symbol
  _atom_site_label
  _atom_site_symmetry_multiplicity
  _atom_site_fract_x
  _atom_site_fract_y
  _atom_site_fract_z
  _atom_site_occupancy
  Ca  Ca1       1.0  0.7440379858016969  0.8606499433517456  0.9248013496398926  1.0000
  O   O1        1.0  0.24434116482734683  0.8088038563728333  0.568593740463257  1.0000
  Ti  Ti1       1.0  0.24369497597217563  0.18710075318813327  0.5929657816886902  1.0000
  Si  Si1       1.0  0.24327972531318667  0.5214496850967407  0.24924120306968697  1.0000
  O   O2        1.0  0.2430120408535004  0.21434153616428375  0.24102288484573364  1.0000
  O   O3        1.0  0.24257983267307284  0.5510188937187195  0.9659433960914612  1.0000
