data_image547
_chemical_formula_structural       CaTiO2SiOCaSiO2
_chemical_formula_sum              "Ca2 Ti1 O5 Si2"
_cell_length_a       3.3478388183299597
_cell_length_b       4.789066594413281
_cell_length_c       8.731152534484863
_cell_angle_alpha    81.88058137155933
_cell_angle_beta     86.96659282986643
_cell_angle_gamma    91.45661548394153

_space_group_name_H-M_alt    "P 1"
_space_group_IT_number       1

loop_
  _space_group_symop_operation_xyz
  'x, y, z'

loop_
  _atom_site_type_symbol
  _atom_site_label
  _atom_site_symmetry_multiplicity
  _atom_site_fract_x
  _atom_site_fract_y
  _atom_site_fract_z
  _atom_site_occupancy
  Ca  Ca1       1.0  0.9109970331192018  0.8037695288658142  0.7076985239982605  1.0000
  Ti  Ti1       1.0  0.7293545603752136  0.2641814649105072  0.35523974895477295  1.0000
  O   O1        1.0  0.3357123136520386  0.4275935590267182  0.8716831207275391  1.0000
  O   O2        1.0  0.8265760540962219  0.9643735885620118  0.936644673347473  1.0000
  Si  Si1       1.0  0.25401368737220764  0.8871275186538696  0.38444471359252924  1.0000
  O   O3        1.0  0.4480082988739014  0.97081458568573  0.5492190718650818  1.0000
  Ca  Ca2       1.0  0.3036024272441864  0.7144092917442322  0.08817867189645767  1.0000
  Si  Si2       1.0  0.8238123059272766  0.3048960268497467  0.9354681372642517  1.0000
  O   O4        1.0  0.7890353798866272  0.3664335310459137  0.11650015413761139  1.0000
  O   O5        1.0  0.22575850784778598  0.533111572265625  0.37382173538208  1.0000
