data_image418
_chemical_formula_structural       OSiTiOCaSiO6
_chemical_formula_sum              "O8 Si2 Ti1 Ca1"
_cell_length_a       5.645632697394538
_cell_length_b       5.643038353180892
_cell_length_c       5.644672393798828
_cell_angle_alpha    106.44928180045437
_cell_angle_beta     106.45586095235818
_cell_angle_gamma    115.55808516960366

_space_group_name_H-M_alt    "P 1"
_space_group_IT_number       1

loop_
  _space_group_symop_operation_xyz
  'x, y, z'

loop_
  _atom_site_type_symbol
  _atom_site_label
  _atom_site_symmetry_multiplicity
  _atom_site_fract_x
  _atom_site_fract_y
  _atom_site_fract_z
  _atom_site_occupancy
  O   O1        1.0  0.18582317233085638  0.9224282503128053  0.3120088875293733  1.0000
  Si  Si1       1.0  0.7730189561843872  0.8102942109107971  0.612857758998871  1.0000
  Ti  Ti1       1.0  0.27316468954086304  0.3112040162086487  0.612813413143158  1.0000
  O   O2        1.0  0.787689745426178  0.997604787349701  0.43996310234069835  1.0000
  Ca  Ca1       1.0  0.5229699611663818  0.06011372432112694  0.11251480877399445  1.0000
  Si  Si2       1.0  0.023061595857143385  0.5603616833686829  0.11292789876461029  1.0000
  O   O3        1.0  0.5865357518196106  0.4493813812732697  0.4401784837245941  1.0000
  O   O4        1.0  0.5868266820907593  0.7970383167266846  0.7862772345542908  1.0000
  O   O5        1.0  0.060297440737485886  0.39800888299942017  0.31272903084754944  1.0000
  O   O6        1.0  0.185708686709404  0.524107038974762  0.913270115852356  1.0000
  O   O7        1.0  0.6614079475402832  0.3987893760204315  0.9140375256538391  1.0000
  O   O8        1.0  0.13403651118278506  0.997631311416626  0.7861124277114868  1.0000
