data_image153
_chemical_formula_structural       OSiCaSi
_chemical_formula_sum              "O1 Si2 Ca1"
_cell_length_a       3.823441665105274
_cell_length_b       3.82451188331873
_cell_length_c       5.7270426750183105
_cell_angle_alpha    89.866581600284
_cell_angle_beta     89.86628789232955
_cell_angle_gamma    59.82636395857421

_space_group_name_H-M_alt    "P 1"
_space_group_IT_number       1

loop_
  _space_group_symop_operation_xyz
  'x, y, z'

loop_
  _atom_site_type_symbol
  _atom_site_label
  _atom_site_symmetry_multiplicity
  _atom_site_fract_x
  _atom_site_fract_y
  _atom_site_fract_z
  _atom_site_occupancy
  O   O1        1.0  0.21183058619499212  0.7700700163841248  0.5851678252220154  1.0000
  Si  Si1       1.0  0.212358757853508  0.7697568535804749  0.2901543080806732  1.0000
  Ca  Ca1       1.0  0.8797571659088134  0.43652299046516424  0.7331604361534119  1.0000
  Si  Si2       1.0  0.5459458231925964  0.10317032039165497  0.13606581091880798  1.0000
