data_image241
_chemical_formula_structural       TiCaSiO2CaO4
_chemical_formula_sum              "Ti1 Ca2 Si1 O6"
_cell_length_a       5.302812611222706
_cell_length_b       5.304823360814562
_cell_length_c       5.305484771728516
_cell_angle_alpha    59.92407329328079
_cell_angle_beta     59.97249045242451
_cell_angle_gamma    59.971043626204256

_space_group_name_H-M_alt    "P 1"
_space_group_IT_number       1

loop_
  _space_group_symop_operation_xyz
  'x, y, z'

loop_
  _atom_site_type_symbol
  _atom_site_label
  _atom_site_symmetry_multiplicity
  _atom_site_fract_x
  _atom_site_fract_y
  _atom_site_fract_z
  _atom_site_occupancy
  Ti  Ti1       1.0  0.5769309401512146  0.4049680233001709  0.9753511548042297  1.0000
  Ca  Ca1       1.0  0.32685497403144836  0.15477757155895233  0.7249594926834106  1.0000
  Si  Si1       1.0  0.07695479691028594  0.9044526815414429  0.475299596786499  1.0000
  O   O1        1.0  0.31593993306159973  0.1435857117176056  0.2364030927419663  1.0000
  O   O2        1.0  0.8378109335899353  0.6656600832939149  0.7141336202621461  1.0000
  Ca  Ca2       1.0  0.8270198702812194  0.6546012163162231  0.22542807459831246  1.0000
  O   O3        1.0  0.8378651738166808  0.14365683495998383  0.23621022701263436  1.0000
  O   O4        1.0  0.31594797968864446  0.665771484375  0.7142788767814636  1.0000
  O   O5        1.0  0.31577780842781067  0.6656625866889954  0.23623496294021606  1.0000
  O   O6        1.0  0.8380856513977052  0.14349746704101562  0.7141686081886292  1.0000
