data_image195
_chemical_formula_structural       SiTiCaOTiCaO
_chemical_formula_sum              "Si1 Ti2 Ca2 O2"
_cell_length_a       4.0520310470230845
_cell_length_b       4.052915072845773
_cell_length_c       8.122791290283203
_cell_angle_alpha    104.4192611447601
_cell_angle_beta     104.35177969554134
_cell_angle_gamma    89.92959036783408

_space_group_name_H-M_alt    "P 1"
_space_group_IT_number       1

loop_
  _space_group_symop_operation_xyz
  'x, y, z'

loop_
  _atom_site_type_symbol
  _atom_site_label
  _atom_site_symmetry_multiplicity
  _atom_site_fract_x
  _atom_site_fract_y
  _atom_site_fract_z
  _atom_site_occupancy
  Si  Si1       1.0  0.8805332779884338  0.9891594052314757  0.4619482159614563  1.0000
  Ti  Ti1       1.0  0.5004733204841614  0.10774541646242142  0.7005633115768433  1.0000
  Ca  Ca1       1.0  0.3246629238128662  0.43278548121452326  0.35158026218414307  1.0000
  O   O1        1.0  0.11172576248645782  0.22159041464328766  0.9265593886375427  1.0000
  Ti  Ti2       1.0  0.998323917388916  0.6074747443199158  0.6987314820289612  1.0000
  Ca  Ca2       1.0  0.6695435047149658  0.7782723903656006  0.04097619652748108  1.0000
  O   O2        1.0  0.5066809058189392  0.615304708480835  0.7149311304092407  1.0000
