data_image320
_chemical_formula_structural       OSiCaSi
_chemical_formula_sum              "O1 Si2 Ca1"
_cell_length_a       3.8750808266214345
_cell_length_b       3.879821649784738
_cell_length_c       6.342801570892334
_cell_angle_alpha    72.53343127769494
_cell_angle_beta     72.4821985007121
_cell_angle_gamma    60.067497579741946

_space_group_name_H-M_alt    "P 1"
_space_group_IT_number       1

loop_
  _space_group_symop_operation_xyz
  'x, y, z'

loop_
  _atom_site_type_symbol
  _atom_site_label
  _atom_site_symmetry_multiplicity
  _atom_site_fract_x
  _atom_site_fract_y
  _atom_site_fract_z
  _atom_site_occupancy
  O   O1        1.0  0.07028849422931671  0.07512150704860687  0.9348325729370116  1.0000
  Si  Si1       1.0  0.5435124635696411  0.548409104347229  0.5142975449562073  1.0000
  Ca  Ca1       1.0  0.7124674916267395  0.7177713513374329  0.009355902671814  1.0000
  Si  Si2       1.0  0.1666126251220703  0.17053250968456268  0.6453395485877991  1.0000
