data_image387
_chemical_formula_structural       TiCaSiCaO
_chemical_formula_sum              "Ti1 Ca2 Si1 O1"
_cell_length_a       4.059251844067943
_cell_length_b       4.7681845093852155
_cell_length_c       4.770423889160156
_cell_angle_alpha    90.06622801808766
_cell_angle_beta     90.05639254258377
_cell_angle_gamma    90.01543190230312

_space_group_name_H-M_alt    "P 1"
_space_group_IT_number       1

loop_
  _space_group_symop_operation_xyz
  'x, y, z'

loop_
  _atom_site_type_symbol
  _atom_site_label
  _atom_site_symmetry_multiplicity
  _atom_site_fract_x
  _atom_site_fract_y
  _atom_site_fract_z
  _atom_site_occupancy
  Ti  Ti1       1.0  0.9546831250190735  0.7808482050895691  0.7745095491409302  1.0000
  Ca  Ca1       1.0  0.4549618363380432  0.7805489301681519  0.27417901158332825  1.0000
  Si  Si1       1.0  0.9549242854118347  0.28106194734573364  0.27420106530189514  1.0000
  Ca  Ca2       1.0  0.4549127221107483  0.2804889380931854  0.7744888067245483  1.0000
  O   O1        1.0  0.4549122452735901  0.781133234500885  0.7742798328399658  1.0000
