data_image291
_chemical_formula_structural       CaSiO3Si
_chemical_formula_sum              "Ca1 Si2 O3"
_cell_length_a       5.002407729627113
_cell_length_b       4.983021331689317
_cell_length_c       4.595595359802246
_cell_angle_alpha    88.78691304240881
_cell_angle_beta     119.01704683110312
_cell_angle_gamma    115.36110046804154

_space_group_name_H-M_alt    "P 1"
_space_group_IT_number       1

loop_
  _space_group_symop_operation_xyz
  'x, y, z'

loop_
  _atom_site_type_symbol
  _atom_site_label
  _atom_site_symmetry_multiplicity
  _atom_site_fract_x
  _atom_site_fract_y
  _atom_site_fract_z
  _atom_site_occupancy
  Ca  Ca1       1.0  0.6352269053459167  0.004031508695334196  0.5599139928817749  1.0000
  Si  Si1       1.0  0.20410920679569244  0.3148099482059479  0.40547454357147217  1.0000
  O   O1        1.0  0.8825641870498657  0.3721751570701599  0.06987053900957108  1.0000
  O   O2        1.0  0.47082459926605225  0.35244715213775635  0.2600368559360504  1.0000
  O   O3        1.0  0.020900189876556383  0.9535067081451416  0.40615150332450867  1.0000
  Si  Si2       1.0  0.6427594423294067  0.5560510158538818  0.02955063991248612  1.0000
