data_image243
_chemical_formula_structural       CaSiO3CaOSiCaOSiOTiSiO6
_chemical_formula_sum              "Ca3 Si4 O12 Ti1"
_cell_length_a       5.373016528144774
_cell_length_b       6.8299107107102
_cell_length_c       6.842494010925293
_cell_angle_alpha    86.03722219052631
_cell_angle_beta     78.94715136119568
_cell_angle_gamma    78.9537223713147

_space_group_name_H-M_alt    "P 1"
_space_group_IT_number       1

loop_
  _space_group_symop_operation_xyz
  'x, y, z'

loop_
  _atom_site_type_symbol
  _atom_site_label
  _atom_site_symmetry_multiplicity
  _atom_site_fract_x
  _atom_site_fract_y
  _atom_site_fract_z
  _atom_site_occupancy
  Ca  Ca1       1.0  0.0936235710978508  0.38191768527030945  0.9434457421302797  1.0000
  Si  Si1       1.0  0.08876688778400423  0.3070666193962097  0.4395183026790619  1.0000
  O   O1        1.0  0.6806469559669495  0.5601611137390136  0.03690247982740402  1.0000
  O   O2        1.0  0.021513106301426898  0.480305403470993  0.6030461192131042  1.0000
  O   O3        1.0  0.3475785851478576  0.35201147198677063  0.26903873682022095  1.0000
  Ca  Ca2       1.0  0.593438982963562  0.5960979461669922  0.730778694152832  1.0000
  O   O4        1.0  0.8387100100517273  0.05753171816468238  0.9759501814842225  1.0000
  Si  Si2       1.0  0.6071504354476929  0.06719296425580977  0.8368493914604187  1.0000
  Ca  Ca3       1.0  0.5940274596214293  0.9923147559165955  0.33605438470840454  1.0000
  O   O5        1.0  0.4740273654460907  0.6691618561744689  0.41884979605674744  1.0000
  Si  Si3       1.0  0.09688568860292435  0.8868857622146606  0.020165134221315384  1.0000
  O   O6        1.0  0.16567434370517733  0.7235030531883239  0.8461676239967346  1.0000
  Ti  Ti1       1.0  0.09395490586757664  0.7874863147735595  0.5394343137741089  1.0000
  Si  Si4       1.0  0.5799540281295776  0.49039879441261286  0.25947847962379456  1.0000
  O   O7        1.0  0.3445552587509155  0.008007436990737915  0.0012987195514142433  1.0000
  O   O8        1.0  0.5060696601867676  0.28926679491996765  0.7667824625968933  1.0000
  O   O9        1.0  0.017127847298979756  0.8121790289878845  0.2498787045478821  1.0000
  O   O10       1.0  0.8414888978004456  0.3265275359153747  0.31892088055610657  1.0000
  O   O11       1.0  0.7127609252929689  0.9072971940040587  0.658627450466156  1.0000
  O   O12       1.0  0.16906403005123138  0.07773756235837936  0.5140581130981445  1.0000
