data_image284
_chemical_formula_structural       O2TiO2SiCaO2SiO2
_chemical_formula_sum              "O8 Ti1 Si2 Ca1"
_cell_length_a       5.644656378271315
_cell_length_b       5.642747979349903
_cell_length_c       5.656219482421875
_cell_angle_alpha    106.49879467007261
_cell_angle_beta     106.5713178471353
_cell_angle_gamma    115.41672418334267

_space_group_name_H-M_alt    "P 1"
_space_group_IT_number       1

loop_
  _space_group_symop_operation_xyz
  'x, y, z'

loop_
  _atom_site_type_symbol
  _atom_site_label
  _atom_site_symmetry_multiplicity
  _atom_site_fract_x
  _atom_site_fract_y
  _atom_site_fract_z
  _atom_site_occupancy
  O   O1        1.0  0.6090958118438721  0.7941641807556152  0.4435398280620575  1.0000
  O   O2        1.0  0.13582594692707062  0.1931523233652115  0.9169817566871643  1.0000
  Ti  Ti1       1.0  0.9226230382919312  0.27909114956855774  0.6163545250892639  1.0000
  O   O3        1.0  0.6088154911994934  0.1396281123161316  0.787519633769989  1.0000
  O   O4        1.0  0.008129421621561031  0.6666042804718018  0.9170103669166565  1.0000
  Si  Si1       1.0  0.4204370975494385  0.7781484723091125  0.615908682346344  1.0000
  Ca  Ca1       1.0  0.6712103486061095  0.5284864306449889  0.11585045605897903  1.0000
  O   O5        1.0  0.5327678918838501  0.19158364832401276  0.3141733705997467  1.0000
  O   O6        1.0  0.40492138266563416  0.5902338027954102  0.7874780297279358  1.0000
  Si  Si2       1.0  0.17109881341457367  0.028448641300201416  0.1156078577041626  1.0000
  O   O7        1.0  0.05971451476216315  0.5908008217811584  0.4437158405780792  1.0000
  O   O8        1.0  0.00792624428868294  0.06407754123210907  0.31452834606170654  1.0000
