data_image183
_chemical_formula_structural       Ca2OTiSiOTiSiO8
_chemical_formula_sum              "Ca2 O10 Ti2 Si2"
_cell_length_a       5.500790980813119
_cell_length_b       5.500022638560279
_cell_length_c       7.107660293579102
_cell_angle_alpha    104.35428002286001
_cell_angle_beta     104.33232721146292
_cell_angle_gamma    105.81556293821187

_space_group_name_H-M_alt    "P 1"
_space_group_IT_number       1

loop_
  _space_group_symop_operation_xyz
  'x, y, z'

loop_
  _atom_site_type_symbol
  _atom_site_label
  _atom_site_symmetry_multiplicity
  _atom_site_fract_x
  _atom_site_fract_y
  _atom_site_fract_z
  _atom_site_occupancy
  Ca  Ca1       1.0  0.5468968749046326  0.7572754621505737  0.8307999968528748  1.0000
  Ca  Ca2       1.0  0.8873997330665588  0.41634622216224665  0.3303452134132385  1.0000
  O   O1        1.0  0.3285149335861206  0.773427426815033  0.46343153715133667  1.0000
  Ti  Ti1       1.0  0.21685868501663208  0.08665474504232405  0.08052060008049011  1.0000
  Si  Si1       1.0  0.5355871915817261  0.7676184773445129  0.3303714692592621  1.0000
  O   O2        1.0  0.9671987891197205  0.7083589434623718  0.9888713955879213  1.0000
  Ti  Ti2       1.0  0.21678860485553741  0.08698056638240813  0.5804567933082581  1.0000
  Si  Si2       1.0  0.8977399468421936  0.4056057333946228  0.8303605914115906  1.0000
  O   O3        1.0  0.1469743251800537  0.15686427056789398  0.33075761795043945  1.0000
  O   O4        1.0  0.2865431308746338  0.016954896971583366  0.8304080963134766  1.0000
  O   O5        1.0  0.10533057898283003  0.39993676543235773  0.6977765560150146  1.0000
  O   O6        1.0  0.9035838842391968  0.19833698868751523  0.9628711938858033  1.0000
  O   O7        1.0  0.5304240584373474  0.9750562906265258  0.1983148604631424  1.0000
  O   O8        1.0  0.5954262018203735  0.3362434208393097  0.6717177629470825  1.0000
  O   O9        1.0  0.46597379446029663  0.46471890807151794  0.1717895120382309  1.0000
  O   O10       1.0  0.8383715748786926  0.8376894593238831  0.4895478487014771  1.0000
