data_image106
_chemical_formula_structural       CaSiO5SiOTi
_chemical_formula_sum              "Ca1 Si2 O6 Ti1"
_cell_length_a       4.866927099586291
_cell_length_b       5.404549364884939
_cell_length_c       5.794503688812256
_cell_angle_alpha    65.05085077533256
_cell_angle_beta     84.49131855391857
_cell_angle_gamma    79.62189181899598

_space_group_name_H-M_alt    "P 1"
_space_group_IT_number       1

loop_
  _space_group_symop_operation_xyz
  'x, y, z'

loop_
  _atom_site_type_symbol
  _atom_site_label
  _atom_site_symmetry_multiplicity
  _atom_site_fract_x
  _atom_site_fract_y
  _atom_site_fract_z
  _atom_site_occupancy
  Ca  Ca1       1.0  0.3212810456752777  0.6797986626625061  0.749819278717041  1.0000
  Si  Si1       1.0  0.5053178668022156  0.4000769555568695  0.27192386984825134  1.0000
  O   O1        1.0  0.7860460281372069  0.6232538223266603  0.5575346350669861  1.0000
  O   O2        1.0  0.4215300381183624  0.25623559951782227  0.09918056428432466  1.0000
  O   O3        1.0  0.2848374843597412  0.36150649189949036  0.5159895420074463  1.0000
  O   O4        1.0  0.514036238193512  0.7187030911445618  0.09212241321802139  1.0000
  O   O5        1.0  0.8194360733032225  0.23261928558349612  0.3791894912719727  1.0000
  Si  Si2       1.0  0.9520476460456848  0.31364554166793823  0.5893400311470032  1.0000
  O   O6        1.0  0.9589309692382812  0.04986972361803055  0.8606246113777162  1.0000
  Ti  Ti1       1.0  0.7430421113967894  0.9340497851371765  0.17361502349376687  1.0000
