data_image242
_chemical_formula_structural       OCaTiOSiCaOTiO5SiO2
_chemical_formula_sum              "O10 Ca2 Ti2 Si2"
_cell_length_a       5.496760094483753
_cell_length_b       5.499529211308419
_cell_length_c       7.109665393829346
_cell_angle_alpha    104.40184421658587
_cell_angle_beta     104.36002374988315
_cell_angle_gamma    105.69559902216044

_space_group_name_H-M_alt    "P 1"
_space_group_IT_number       1

loop_
  _space_group_symop_operation_xyz
  'x, y, z'

loop_
  _atom_site_type_symbol
  _atom_site_label
  _atom_site_symmetry_multiplicity
  _atom_site_fract_x
  _atom_site_fract_y
  _atom_site_fract_z
  _atom_site_occupancy
  O   O1        1.0  0.08243384212255478  0.07608657330274582  0.6518072485923767  1.0000
  Ca  Ca1       1.0  0.09864372014999394  0.8589999079704286  0.28448405861854553  1.0000
  Ti  Ti1       1.0  0.7690100073814392  0.18849635124206543  0.5342491865158081  1.0000
  O   O2        1.0  0.6570405960083008  0.5016428828239441  0.15163999795913696  1.0000
  Si  Si1       1.0  0.08881722390651704  0.8694510459899902  0.7845562696456909  1.0000
  Ca  Ca2       1.0  0.440342515707016  0.5175037980079651  0.7846587300300598  1.0000
  O   O3        1.0  0.8391751646995544  0.11889774352312087  0.28439661860466003  1.0000
  Ti  Ti2       1.0  0.769623875617981  0.18890464305877686  0.034658391028642654  1.0000
  O   O4        1.0  0.4562586545944214  0.3012048602104187  0.41730013489723206  1.0000
  O   O5        1.0  0.3917670249938965  0.9390777945518494  0.9431744813919067  1.0000
  O   O6        1.0  0.7001477479934692  0.25799208879470825  0.784673273563385  1.0000
  O   O7        1.0  0.8817274570465088  0.8756595253944397  0.9172525405883789  1.0000
  O   O8        1.0  0.5202357769012451  0.8110048770904541  0.44310981035232544  1.0000
  Si  Si2       1.0  0.44970712065696716  0.5078428387641907  0.2846839427947998  1.0000
  O   O9        1.0  0.1472978889942169  0.43754160404205317  0.12571340799331665  1.0000
  O   O10       1.0  0.01921706460416316  0.5662981271743774  0.6259444355964661  1.0000
