data_image267
_chemical_formula_structural       CaTiSiO
_chemical_formula_sum              "Ca1 Ti1 Si1 O1"
_cell_length_a       3.177114634150923
_cell_length_b       3.177034005814813
_cell_length_c       7.108278274536133
_cell_angle_alpha    77.0773877394992
_cell_angle_beta     77.09030218253353
_cell_angle_gamma    60.06120754912272

_space_group_name_H-M_alt    "P 1"
_space_group_IT_number       1

loop_
  _space_group_symop_operation_xyz
  'x, y, z'

loop_
  _atom_site_type_symbol
  _atom_site_label
  _atom_site_symmetry_multiplicity
  _atom_site_fract_x
  _atom_site_fract_y
  _atom_site_fract_z
  _atom_site_occupancy
  Ca  Ca1       1.0  0.5010923147201538  0.8620412349700928  0.8160037398338318  1.0000
  Ti  Ti1       1.0  0.0370369479060173  0.3981141746044159  0.20808306336402893  1.0000
  Si  Si1       1.0  0.2795551121234894  0.6412069201469421  0.4803182482719422  1.0000
  O   O1        1.0  0.7614626884460449  0.12285198271274567  0.03536678105592728  1.0000
