data_image352
_chemical_formula_structural       OTiCa2O4SiO
_chemical_formula_sum              "O6 Ti1 Ca2 Si1"
_cell_length_a       5.26991075939655
_cell_length_b       5.268166977069478
_cell_length_c       5.277265548706055
_cell_angle_alpha    90.21655364896412
_cell_angle_beta     119.82610659136908
_cell_angle_gamma    119.87849191433592

_space_group_name_H-M_alt    "P 1"
_space_group_IT_number       1

loop_
  _space_group_symop_operation_xyz
  'x, y, z'

loop_
  _atom_site_type_symbol
  _atom_site_label
  _atom_site_symmetry_multiplicity
  _atom_site_fract_x
  _atom_site_fract_y
  _atom_site_fract_z
  _atom_site_occupancy
  O   O1        1.0  0.03299768269062042  0.1348857581615448  0.6293329000473022  1.0000
  Ti  Ti1       1.0  0.5543458461761475  0.422341525554657  0.9178082346916199  1.0000
  Ca  Ca1       1.0  0.050091687589883804  0.6709592342376709  0.6626388430595398  1.0000
  Ca  Ca2       1.0  0.05877833813428879  0.1737537533044815  0.17379480600357056  1.0000
  O   O2        1.0  0.0758182629942894  0.7098757028579712  0.2064502239227295  1.0000
  O   O3        1.0  0.5565268993377686  0.19013351202011108  0.20784439146518707  1.0000
  O   O4        1.0  0.6077181100845337  0.16101142764091492  0.7109534740447998  1.0000
  O   O5        1.0  0.500485360622406  0.6835740804672241  0.12447665631771092  1.0000
  Si  Si1       1.0  0.5544586777687073  0.9222308397293091  0.4181688129901886  1.0000
  O   O6        1.0  0.552458643913269  0.6548652648925781  0.6279571652412415  1.0000
