data_image597
_chemical_formula_structural       OTiOCaSiO3SiTiO2
_chemical_formula_sum              "O7 Ti2 Ca1 Si2"
_cell_length_a       5.659169398784177
_cell_length_b       5.665624673473769
_cell_length_c       7.596189498901367
_cell_angle_alpha    67.78511837418137
_cell_angle_beta     68.29278111247467
_cell_angle_gamma    58.69256786204189

_space_group_name_H-M_alt    "P 1"
_space_group_IT_number       1

loop_
  _space_group_symop_operation_xyz
  'x, y, z'

loop_
  _atom_site_type_symbol
  _atom_site_label
  _atom_site_symmetry_multiplicity
  _atom_site_fract_x
  _atom_site_fract_y
  _atom_site_fract_z
  _atom_site_occupancy
  O   O1        1.0  0.3876076638698577  0.9503960013389587  0.14190568029880524  1.0000
  Ti  Ti1       1.0  0.3597015738487243  0.0981200709939003  0.49667274951934814  1.0000
  O   O2        1.0  0.9746512174606322  0.2503104507923126  0.6414614915847778  1.0000
  Ca  Ca1       1.0  0.7993329763412474  0.9172093868255615  0.8624902963638306  1.0000
  Si  Si1       1.0  0.6636115312576294  0.5341452956199646  0.672248125076294  1.0000
  O   O3        1.0  0.4747928082942962  0.41406774520874023  0.8706554770469666  1.0000
  O   O4        1.0  0.4998535513877868  0.6682796478271484  0.4876452684402466  1.0000
  O   O5        1.0  0.8852294087409972  0.5376802086830139  0.14694517850875854  1.0000
  Si  Si2       1.0  0.549472987651825  0.631331741809845  0.264367401599884  1.0000
  Ti  Ti2       1.0  0.26885908842086786  0.32401010394096375  0.139667809009552  1.0000
  O   O6        1.0  0.6654792428016663  0.8264911770820618  0.6651892066001892  1.0000
  O   O7        1.0  0.42348271608352656  0.4075879156589508  0.29389798641204834  1.0000
