data_image461
_chemical_formula_structural       TiSiCaSiO8
_chemical_formula_sum              "Ti1 Si2 Ca1 O8"
_cell_length_a       5.118635154789092
_cell_length_b       5.127204499835611
_cell_length_c       6.875235557556152
_cell_angle_alpha    90.02674269487366
_cell_angle_beta     89.88953101683619
_cell_angle_gamma    63.90161659327156

_space_group_name_H-M_alt    "P 1"
_space_group_IT_number       1

loop_
  _space_group_symop_operation_xyz
  'x, y, z'

loop_
  _atom_site_type_symbol
  _atom_site_label
  _atom_site_symmetry_multiplicity
  _atom_site_fract_x
  _atom_site_fract_y
  _atom_site_fract_z
  _atom_site_occupancy
  Ti  Ti1       1.0  0.6895371675491333  0.754427969455719  0.5384184122085571  1.0000
  Si  Si1       1.0  0.04394479840993882  0.10826352983713149  0.3091382086277008  1.0000
  Ca  Ca1       1.0  0.6892693042755126  0.7548084855079651  0.039090901613235474  1.0000
  Si  Si2       1.0  0.33321654796600336  0.3995664417743683  0.7677131295204163  1.0000
  O   O1        1.0  0.4792969822883606  0.04376351460814476  0.7464775443077087  1.0000
  O   O2        1.0  0.41539713740348816  0.48274534940719604  0.9858987331390381  1.0000
  O   O3        1.0  0.9049562215805054  0.9695525765419006  0.4679293930530548  1.0000
  O   O4        1.0  0.9639607667922974  0.02646714262664318  0.09074953943490982  1.0000
  O   O5        1.0  0.4739411175251007  0.5400147438049316  0.6107861399650574  1.0000
  O   O6        1.0  0.900343716144562  0.4646893739700317  0.3311660587787628  1.0000
  O   O7        1.0  0.9775450825691223  0.5442294478416443  0.7457927465438843  1.0000
  O   O8        1.0  0.40051737427711487  0.9652169942855834  0.3320499360561371  1.0000
