data_image253
_chemical_formula_structural       CaTiSi
_chemical_formula_sum              "Ca1 Ti1 Si1"
_cell_length_a       4.287262679814775
_cell_length_b       4.285947659566244
_cell_length_c       4.455714702606201
_cell_angle_alpha    89.96469725706436
_cell_angle_beta     90.0191748467275
_cell_angle_gamma    119.9860428750746

_space_group_name_H-M_alt    "P 1"
_space_group_IT_number       1

loop_
  _space_group_symop_operation_xyz
  'x, y, z'

loop_
  _atom_site_type_symbol
  _atom_site_label
  _atom_site_symmetry_multiplicity
  _atom_site_fract_x
  _atom_site_fract_y
  _atom_site_fract_z
  _atom_site_occupancy
  Ca  Ca1       1.0  0.36295565962791443  0.22970829904079437  0.9316362142562866  1.0000
  Ti  Ti1       1.0  0.6967710256576539  0.8960746526718141  0.4316055476665497  1.0000
  Si  Si1       1.0  0.030143791809678067  0.5616438984870911  0.43134593963623047  1.0000
