data_image529
_chemical_formula_structural       SiO3CaOSiOTiO3
_chemical_formula_sum              "Si2 O8 Ca1 Ti1"
_cell_length_a       5.656277689119983
_cell_length_b       5.656170141132962
_cell_length_c       5.660268306732178
_cell_angle_alpha    106.5066902101251
_cell_angle_beta     106.46843533514404
_cell_angle_gamma    115.51497413074307

_space_group_name_H-M_alt    "P 1"
_space_group_IT_number       1

loop_
  _space_group_symop_operation_xyz
  'x, y, z'

loop_
  _atom_site_type_symbol
  _atom_site_label
  _atom_site_symmetry_multiplicity
  _atom_site_fract_x
  _atom_site_fract_y
  _atom_site_fract_z
  _atom_site_occupancy
  Si  Si1       1.0  0.7875723838806152  0.45385485887527466  0.07467532157897949  1.0000
  O   O1        1.0  0.6239845752716066  0.4888830184936524  0.2731710076332093  1.0000
  O   O2        1.0  0.623441755771637  0.09156064689159393  0.8761354088783264  1.0000
  O   O3        1.0  0.2260519415140152  0.564712643623352  0.7467103600502014  1.0000
  Ca  Ca1       1.0  0.2878311574459076  0.9537037014961243  0.07476415485143661  1.0000
  O   O4        1.0  0.22524139285087585  0.21868591010570526  0.4023902118206024  1.0000
  Si  Si2       1.0  0.03714511916041376  0.2037214040756226  0.5747872591018677  1.0000
  O   O5        1.0  0.7521091103553772  0.616863489151001  0.8760955333709717  1.0000
  Ti  Ti1       1.0  0.537501335144043  0.703486442565918  0.5741822719573975  1.0000
  O   O6        1.0  0.1495779603719712  0.6169035434722902  0.2733077704906464  1.0000
  O   O7        1.0  0.020606432110071182  0.014871916733682156  0.7466897964477539  1.0000
  O   O8        1.0  0.6762488484382629  0.015392826870083809  0.4033929705619812  1.0000
