data_image430
_chemical_formula_structural       TiCaSiO8Si
_chemical_formula_sum              "Ti1 Ca1 Si2 O8"
_cell_length_a       4.913925535141852
_cell_length_b       4.819833106610887
_cell_length_c       7.576330184936523
_cell_angle_alpha    112.40921745952726
_cell_angle_beta     101.08268844429256
_cell_angle_gamma    98.82182000892402

_space_group_name_H-M_alt    "P 1"
_space_group_IT_number       1

loop_
  _space_group_symop_operation_xyz
  'x, y, z'

loop_
  _atom_site_type_symbol
  _atom_site_label
  _atom_site_symmetry_multiplicity
  _atom_site_fract_x
  _atom_site_fract_y
  _atom_site_fract_z
  _atom_site_occupancy
  Ti  Ti1       1.0  0.11398172378540039  0.5800832509994507  0.8992677927017212  1.0000
  Ca  Ca1       1.0  0.8037448525428772  0.002278008032590151  0.33654212951660156  1.0000
  Si  Si1       1.0  0.26079896092414856  0.5100825428962708  0.3060164451599121  1.0000
  O   O1        1.0  0.3425777554512024  0.8478947877883911  0.8291603326797485  1.0000
  O   O2        1.0  0.9413777589797974  0.5214492082595825  0.3263378441333771  1.0000
  O   O3        1.0  0.3436599671840668  0.18428786098957062  0.3048820495605469  1.0000
  O   O4        1.0  0.4931182265281677  0.8095780611038208  0.5044448971748352  1.0000
  O   O5        1.0  0.7423381805419922  0.3201923072338104  0.8119097352027893  1.0000
  O   O6        1.0  0.17310132086277008  0.21000970900058746  0.6720520853996277  1.0000
  O   O7        1.0  0.3459050953388214  0.5573520660400391  0.11558005958795547  1.0000
  O   O8        1.0  0.9586231112480164  0.8890936374664307  0.0475587472319603  1.0000
  Si  Si2       1.0  0.4339991509914398  0.049159929156303406  0.71174156665802  1.0000
