data_image568
_chemical_formula_structural       CaSiO
_chemical_formula_sum              "Ca1 Si1 O1"
_cell_length_a       3.93850573425762
_cell_length_b       3.926956977030004
_cell_length_c       4.300722599029541
_cell_angle_alpha    89.97674570962255
_cell_angle_beta     89.98811797549949
_cell_angle_gamma    119.50458230126537

_space_group_name_H-M_alt    "P 1"
_space_group_IT_number       1

loop_
  _space_group_symop_operation_xyz
  'x, y, z'

loop_
  _atom_site_type_symbol
  _atom_site_label
  _atom_site_symmetry_multiplicity
  _atom_site_fract_x
  _atom_site_fract_y
  _atom_site_fract_z
  _atom_site_occupancy
  Ca  Ca1       1.0  0.9038949608802795  0.9403114318847657  0.790377676486969  1.0000
  Si  Si1       1.0  0.5699753761291504  0.27481546998023987  0.2904362082481384  1.0000
  O   O1        1.0  0.23536112904548645  0.6082643866539001  0.2904525399208069  1.0000
