data_image164
_chemical_formula_structural       CaTiSi
_chemical_formula_sum              "Ca1 Ti1 Si1"
_cell_length_a       4.250106071818107
_cell_length_b       4.253443774050867
_cell_length_c       4.530351638793945
_cell_angle_alpha    90.00930522206697
_cell_angle_beta     89.91226871443062
_cell_angle_gamma    119.93200435062599

_space_group_name_H-M_alt    "P 1"
_space_group_IT_number       1

loop_
  _space_group_symop_operation_xyz
  'x, y, z'

loop_
  _atom_site_type_symbol
  _atom_site_label
  _atom_site_symmetry_multiplicity
  _atom_site_fract_x
  _atom_site_fract_y
  _atom_site_fract_z
  _atom_site_occupancy
  Ca  Ca1       1.0  0.7567360997200013  0.8837358355522157  0.7846604585647583  1.0000
  Ti  Ti1       1.0  0.0922504961490631  0.5525030493736267  0.29216423630714417  1.0000
  Si  Si1       1.0  0.42480146884918213  0.21579092741012573  0.26736241579055786  1.0000
