data_image292
_chemical_formula_structural       CaSiTiCaO2
_chemical_formula_sum              "Ca2 Si1 Ti1 O2"
_cell_length_a       3.3522835345828192
_cell_length_b       3.3541233439197553
_cell_length_c       9.334728240966797
_cell_angle_alpha    100.31773422514374
_cell_angle_beta     100.32669588687534
_cell_angle_gamma    89.964512676065

_space_group_name_H-M_alt    "P 1"
_space_group_IT_number       1

loop_
  _space_group_symop_operation_xyz
  'x, y, z'

loop_
  _atom_site_type_symbol
  _atom_site_label
  _atom_site_symmetry_multiplicity
  _atom_site_fract_x
  _atom_site_fract_y
  _atom_site_fract_z
  _atom_site_occupancy
  Ca  Ca1       1.0  0.3179539740085602  0.26527488231658936  0.12968607246875763  1.0000
  Si  Si1       1.0  0.1481413096189499  0.09468622505664824  0.7884990572929382  1.0000
  Ti  Ti1       1.0  0.6019068956375122  0.5487192869186401  0.6949504613876343  1.0000
  Ca  Ca2       1.0  0.971215009689331  0.9180629849433899  0.43538525700569153  1.0000
  O   O1        1.0  0.49195367097854614  0.43811118602752686  0.4779444634914398  1.0000
  O   O2        1.0  0.8454189300537109  0.7925719022750854  0.18548615276813507  1.0000
