data_image481
_chemical_formula_structural       Ti2SiCaO6SiO
_chemical_formula_sum              "Ti2 Si2 Ca1 O7"
_cell_length_a       5.502441815422487
_cell_length_b       5.269118820882712
_cell_length_c       6.197503566741943
_cell_angle_alpha    93.41308216773587
_cell_angle_beta     82.91674744911022
_cell_angle_gamma    80.5426231170743

_space_group_name_H-M_alt    "P 1"
_space_group_IT_number       1

loop_
  _space_group_symop_operation_xyz
  'x, y, z'

loop_
  _atom_site_type_symbol
  _atom_site_label
  _atom_site_symmetry_multiplicity
  _atom_site_fract_x
  _atom_site_fract_y
  _atom_site_fract_z
  _atom_site_occupancy
  Ti  Ti1       1.0  0.048660296946763965  0.694080412387848  0.13506919145584106  1.0000
  Ti  Ti2       1.0  0.5286037921905518  0.6281587481498718  0.2544301748275757  1.0000
  Si  Si1       1.0  0.016638301312923407  0.8897503018379213  0.6477296352386475  1.0000
  Ca  Ca1       1.0  0.4991810619831085  0.07088305056095123  0.9070233702659606  1.0000
  O   O1        1.0  0.878912627696991  0.43556737899780273  0.2919185161590576  1.0000
  O   O2        1.0  0.8155242800712585  0.6829081177711487  0.6842010617256163  1.0000
  O   O3        1.0  0.18841855227947232  0.8210116028785707  0.40821349620819086  1.0000
  O   O4        1.0  0.8272348046302795  0.1772339642047882  0.6540587544441223  1.0000
  O   O5        1.0  0.15907067060470584  0.8847905993461609  0.857840061187744  1.0000
  O   O6        1.0  0.7026969194412231  0.8676890134811401  0.15213629603385925  1.0000
  Si  Si2       1.0  0.7292170524597168  0.4414452612400055  0.5379655957221985  1.0000
  O   O7        1.0  0.3674735724925995  0.46476638317108154  0.0620778240263462  1.0000
