data_image271
_chemical_formula_structural       Ti2CaTiSiCaSiO2
_chemical_formula_sum              "Ti3 Ca2 Si2 O2"
_cell_length_a       4.009811008427674
_cell_length_b       4.0168213590118445
_cell_length_c       9.569073677062988
_cell_angle_alpha    101.91071889624499
_cell_angle_beta     101.94690491356775
_cell_angle_gamma    89.88359559744062

_space_group_name_H-M_alt    "P 1"
_space_group_IT_number       1

loop_
  _space_group_symop_operation_xyz
  'x, y, z'

loop_
  _atom_site_type_symbol
  _atom_site_label
  _atom_site_symmetry_multiplicity
  _atom_site_fract_x
  _atom_site_fract_y
  _atom_site_fract_z
  _atom_site_occupancy
  Ti  Ti1       1.0  0.10939767956733704  0.032463353127241135  0.004001617431640625  1.0000
  Ti  Ti2       1.0  0.6089426875114441  0.5335397720336914  0.004299972206354141  1.0000
  Ca  Ca1       1.0  0.44931280612945557  0.8731813430786132  0.6856150031089783  1.0000
  Ti  Ti3       1.0  0.8590027093887329  0.2828647494316101  0.5043673515319824  1.0000
  Si  Si1       1.0  0.01842912845313549  0.4423828423023224  0.8218502402305603  1.0000
  Ca  Ca2       1.0  0.2682592570781708  0.6919187307357788  0.3226674795150757  1.0000
  Si  Si2       1.0  0.6996490359306335  0.12353194504976273  0.18647712469100952  1.0000
  O   O1        1.0  0.3585449159145355  0.2826489806175232  0.5039127469062805  1.0000
  O   O2        1.0  0.8586289882659912  0.7825049161911011  0.5040931701660156  1.0000
