data_image202
_chemical_formula_structural       CaSi2OSiO2TiO5CaO2
_chemical_formula_sum              "Ca2 Si3 O10 Ti1"
_cell_length_a       5.343758890482703
_cell_length_b       5.481272094904991
_cell_length_c       6.9274139404296875
_cell_angle_alpha    104.75645521789748
_cell_angle_beta     103.73367605463609
_cell_angle_gamma    105.44904322100254

_space_group_name_H-M_alt    "P 1"
_space_group_IT_number       1

loop_
  _space_group_symop_operation_xyz
  'x, y, z'

loop_
  _atom_site_type_symbol
  _atom_site_label
  _atom_site_symmetry_multiplicity
  _atom_site_fract_x
  _atom_site_fract_y
  _atom_site_fract_z
  _atom_site_occupancy
  Ca  Ca1       1.0  0.6799314618110657  0.03749765455722809  0.14193618297576904  1.0000
  Si  Si1       1.0  0.6738829612731934  0.013246486894786358  0.6331786513328552  1.0000
  Si  Si2       1.0  0.0022590160369872925  0.70624840259552  0.38914549350738525  1.0000
  O   O1        1.0  0.064376100897789  0.6469900608062744  0.6265458464622498  1.0000
  Si  Si3       1.0  0.3306225836277008  0.3995586931705475  0.14506632089614868  1.0000
  O   O2        1.0  0.2536630630493164  0.0900127962231636  0.9902955293655396  1.0000
  O   O3        1.0  0.3636881709098816  0.943225622177124  0.4740579426288605  1.0000
  Ti  Ti1       1.0  0.0019303602166473805  0.7059482932090759  0.889255702495575  1.0000
  O   O4        1.0  0.11557185649871823  0.4128975570201873  0.2813445031642914  1.0000
  O   O5        1.0  0.3195745646953583  0.5931580662727356  0.9992139935493469  1.0000
  O   O6        1.0  0.9398018717765808  0.7654029726982117  0.15182682871818542  1.0000
  O   O7        1.0  0.8888967037200928  0.0004915217868983746  0.49725329875946045  1.0000
  O   O8        1.0  0.7501139640808105  0.32221099734306335  0.7880038022994995  1.0000
  Ca  Ca2       1.0  0.3247460722923279  0.37522172927856445  0.6370307207107544  1.0000
  O   O9        1.0  0.6411435604095459  0.46940493583679205  0.3043294847011566  1.0000
  O   O10       1.0  0.6847344040870667  0.8195294141769409  0.7791235446929932  1.0000
