data_image252
_chemical_formula_structural       OCaTi3SiO8
_chemical_formula_sum              "O9 Ca1 Ti3 Si1"
_cell_length_a       5.177637005676775
_cell_length_b       5.31271855545283
_cell_length_c       6.7208967208862305
_cell_angle_alpha    91.93029582480631
_cell_angle_beta     98.53049856318587
_cell_angle_gamma    105.98882442714626

_space_group_name_H-M_alt    "P 1"
_space_group_IT_number       1

loop_
  _space_group_symop_operation_xyz
  'x, y, z'

loop_
  _atom_site_type_symbol
  _atom_site_label
  _atom_site_symmetry_multiplicity
  _atom_site_fract_x
  _atom_site_fract_y
  _atom_site_fract_z
  _atom_site_occupancy
  O   O1        1.0  0.9895997047424316  0.03458856791257858  0.5244669914245605  1.0000
  Ca  Ca1       1.0  0.23800207674503332  0.6975070238113404  0.5421258211135864  1.0000
  Ti  Ti1       1.0  0.8986594080924988  0.19586370885372162  0.7328778505325317  1.0000
  Ti  Ti2       1.0  0.3663433492183686  0.84610652923584  0.001799026504158982  1.0000
  Ti  Ti3       1.0  0.9943004846572876  0.05543749779462814  0.23001816868782043  1.0000
  Si  Si1       1.0  0.6142802238464355  0.4355545938014984  0.2931811511516571  1.0000
  O   O2        1.0  0.7844513654708862  0.46191000938415533  0.523777425289154  1.0000
  O   O3        1.0  0.08695559203624725  0.05320327728986741  0.9468278288841248  1.0000
  O   O4        1.0  0.16896387934684753  0.547357439994812  0.8525052070617676  1.0000
  O   O5        1.0  0.21249070763587952  0.833664059638977  0.23879222571849823  1.0000
  O   O6        1.0  0.28943130373954773  0.35927861928939825  0.3114767372608185  1.0000
  O   O7        1.0  0.6872451901435852  0.2097375988960266  0.15922962129116058  1.0000
  O   O8        1.0  0.6650548577308655  0.7109670042991638  0.17311328649520874  1.0000
  O   O9        1.0  0.5577054619789124  0.9981742501258851  0.7779231071472168  1.0000
