data_image505
_chemical_formula_structural       O2CaTi
_chemical_formula_sum              "O2 Ca1 Ti1"
_cell_length_a       3.3761838492607477
_cell_length_b       3.3793384115083245
_cell_length_c       6.379396438598633
_cell_angle_alpha    89.9726339361521
_cell_angle_beta     89.90757637742551
_cell_angle_gamma    119.70856220055387

_space_group_name_H-M_alt    "P 1"
_space_group_IT_number       1

loop_
  _space_group_symop_operation_xyz
  'x, y, z'

loop_
  _atom_site_type_symbol
  _atom_site_label
  _atom_site_symmetry_multiplicity
  _atom_site_fract_x
  _atom_site_fract_y
  _atom_site_fract_z
  _atom_site_occupancy
  O   O1        1.0  0.2328833490610123  0.2618844509124756  0.835420072078705  1.0000
  O   O2        1.0  0.2331892102956772  0.262849897146225  0.264215886592865  1.0000
  Ca  Ca1       1.0  0.8983511328697205  0.5965457558631897  0.049916323274374  1.0000
  Ti  Ti1       1.0  0.2309316694736481  0.2641850411891937  0.5499171018600464  1.0000
