data_image169
_chemical_formula_structural       Ca2OTiOSiOTiSiO7
_chemical_formula_sum              "Ca2 O10 Ti2 Si2"
_cell_length_a       5.137839964819253
_cell_length_b       5.2281532786411455
_cell_length_c       8.389513969421387
_cell_angle_alpha    82.85479126612802
_cell_angle_beta     84.63348220675557
_cell_angle_gamma    82.71365961473785

_space_group_name_H-M_alt    "P 1"
_space_group_IT_number       1

loop_
  _space_group_symop_operation_xyz
  'x, y, z'

loop_
  _atom_site_type_symbol
  _atom_site_label
  _atom_site_symmetry_multiplicity
  _atom_site_fract_x
  _atom_site_fract_y
  _atom_site_fract_z
  _atom_site_occupancy
  Ca  Ca1       1.0  0.10190904885530472  0.2839462161064148  0.31316834688186646  1.0000
  Ca  Ca2       1.0  0.5729857087135315  0.26573479175567627  0.6020069718360901  1.0000
  O   O1        1.0  0.7696629166603087  0.5647271871566772  0.4009925425052643  1.0000
  Ti  Ti1       1.0  0.6590697169303894  0.8414828777313234  0.26851174235343933  1.0000
  O   O2        1.0  0.7025732398033141  0.8062416911125183  0.7728785276412964  1.0000
  Si  Si1       1.0  0.012599222362041473  0.8417186737060547  0.7088439464569092  1.0000
  O   O3        1.0  0.48398008942604065  0.08373171091079712  0.3775242567062378  1.0000
  Ti  Ti2       1.0  0.4505687654018402  0.6179178953170776  0.9138244986534118  1.0000
  Si  Si2       1.0  0.981815755367279  0.1917419582605362  0.9747252464294434  1.0000
  O   O4        1.0  0.4907187521457672  0.7256702184677124  0.10736605525016785  1.0000
  O   O5        1.0  0.24599945545196533  0.5910322070121765  0.7063027620315552  1.0000
  O   O6        1.0  0.9960052967071533  0.060583408921957016  0.5579936504364014  1.0000
  O   O7        1.0  0.9215798377990723  0.02690673433244228  0.15422950685024261  1.0000
  O   O8        1.0  0.14288330078125  0.9741548299789429  0.857342541217804  1.0000
  O   O9        1.0  0.7050518989562988  0.31651780009269714  0.8965237736701965  1.0000
  O   O10       1.0  0.16819846630096438  0.398811936378479  0.015213760547339916  1.0000
