data_image471
_chemical_formula_structural       SiTi2OSiOCaO6Ca
_chemical_formula_sum              "Si2 Ti2 O8 Ca2"
_cell_length_a       5.458919089910816
_cell_length_b       5.471202893090242
_cell_length_c       6.458642959594727
_cell_angle_alpha    89.99283763604781
_cell_angle_beta     89.99292642852586
_cell_angle_gamma    112.69594880843148

_space_group_name_H-M_alt    "P 1"
_space_group_IT_number       1

loop_
  _space_group_symop_operation_xyz
  'x, y, z'

loop_
  _atom_site_type_symbol
  _atom_site_label
  _atom_site_symmetry_multiplicity
  _atom_site_fract_x
  _atom_site_fract_y
  _atom_site_fract_z
  _atom_site_occupancy
  Si  Si1       1.0  0.273833304643631  0.07565423101186752  0.358200341463089  1.0000
  Ti  Ti1       1.0  0.5722250938415527  0.7774951457977295  0.3577660024166107  1.0000
  Ti  Ti2       1.0  0.2498139590024948  0.09950974583625793  0.8578379154205322  1.0000
  O   O1        1.0  0.17528384923934937  0.17415624856948853  0.14339853823184967  1.0000
  Si  Si2       1.0  0.5474022030830383  0.8028128147125245  0.8573551774024963  1.0000
  O   O2        1.0  0.6069538593292236  0.1614183783531189  0.35800591111183167  1.0000
  Ca  Ca1       1.0  0.9108714461326599  0.43919402360916143  0.6076090335845947  1.0000
  O   O3        1.0  0.645752489566803  0.7040660977363586  0.07168040424585342  1.0000
  O   O4        1.0  0.6341996788978577  0.13575991988182068  0.8574094176292419  1.0000
  O   O5        1.0  0.6459047198295593  0.7034290432929993  0.642381489276886  1.0000
  O   O6        1.0  0.17524705827236176  0.17445187270641327  0.5726654529571533  1.0000
  O   O7        1.0  0.2148765474557877  0.7165377736091615  0.8576369285583496  1.0000
  O   O8        1.0  0.1881452053785324  0.7432044744491577  0.35739123821258545  1.0000
  Ca  Ca2       1.0  0.9104731678962708  0.43923449516296387  0.10804179310798645  1.0000
