data_image550
_chemical_formula_structural       TiCa2O3Si2OSiO6
_chemical_formula_sum              "Ti1 Ca2 O10 Si3"
_cell_length_a       4.958486134489098
_cell_length_b       6.071177045761042
_cell_length_c       9.62514877319336
_cell_angle_alpha    90.05120160078195
_cell_angle_beta     74.9744954134354
_cell_angle_gamma    88.60735424366693

_space_group_name_H-M_alt    "P 1"
_space_group_IT_number       1

loop_
  _space_group_symop_operation_xyz
  'x, y, z'

loop_
  _atom_site_type_symbol
  _atom_site_label
  _atom_site_symmetry_multiplicity
  _atom_site_fract_x
  _atom_site_fract_y
  _atom_site_fract_z
  _atom_site_occupancy
  Ti  Ti1       1.0  0.5971226692199707  0.29480600357055664  0.7324729561805725  1.0000
  Ca  Ca1       1.0  0.8408442735671997  0.25909996032714844  0.31061387062072754  1.0000
  Ca  Ca2       1.0  0.3450585603713989  0.8440623283386229  0.3077760636806488  1.0000
  O   O1        1.0  0.9615642428398132  0.4942510426044464  0.1401986330747604  1.0000
  O   O2        1.0  0.2953316867351532  0.6056376695632935  0.4758782684803009  1.0000
  O   O3        1.0  0.1782131940126419  0.8234153389930725  0.9566738605499268  1.0000
  Si  Si1       1.0  0.9306849837303162  0.7451574206352234  0.10189808160066609  1.0000
  Si  Si2       1.0  0.21142788231372833  0.3580138683319091  0.5172588229179382  1.0000
  O   O4        1.0  0.8659931421279907  0.3141055107116699  0.5534092783927917  1.0000
  Si  Si3       1.0  0.5119628310203552  0.802047073841095  0.9070165157318115  1.0000
  O   O5        1.0  0.9178248047828674  0.9079991579055786  0.2396068125963211  1.0000
  O   O6        1.0  0.6079069375991821  0.56150221824646  0.8241527676582338  1.0000
  O   O7        1.0  0.28950443863868713  0.28206735849380493  0.6714996099472046  1.0000
  O   O8        1.0  0.348021537065506  0.19251778721809387  0.3812336921691895  1.0000
  O   O9        1.0  0.6349161863327026  0.027392126619815826  0.8178781270980836  1.0000
  O   O10       1.0  0.62140953540802  0.7970061898231506  0.05846952646970747  1.0000
