data_image367
_chemical_formula_structural       OCaSiO3TiO2
_chemical_formula_sum              "O6 Ca1 Si1 Ti1"
_cell_length_a       4.995394706734456
_cell_length_b       5.0073207391446575
_cell_length_c       5.009918212890625
_cell_angle_alpha    120.06763496123784
_cell_angle_beta     90.00010495732408
_cell_angle_gamma    90.09642428158385

_space_group_name_H-M_alt    "P 1"
_space_group_IT_number       1

loop_
  _space_group_symop_operation_xyz
  'x, y, z'

loop_
  _atom_site_type_symbol
  _atom_site_label
  _atom_site_symmetry_multiplicity
  _atom_site_fract_x
  _atom_site_fract_y
  _atom_site_fract_z
  _atom_site_occupancy
  O   O1        1.0  0.8436837196350098  0.10730772465467453  0.12970121204853058  1.0000
  Ca  Ca1       1.0  0.5480576753616333  0.7451038360595703  0.7420803904533386  1.0000
  Si  Si1       1.0  0.04779376462101936  0.07886073738336563  0.40867504477500916  1.0000
  O   O2        1.0  0.2521926164627075  0.3575318157672882  0.3794134557247162  1.0000
  O   O3        1.0  0.2520451545715332  0.7703748941421509  0.1293935328722  1.0000
  O   O4        1.0  0.2519901692867279  0.10738877207040787  0.7169939875602722  1.0000
  Ti  Ti1       1.0  0.047892652451992035  0.41171061992645264  0.07474254071712494  1.0000
  O   O5        1.0  0.8439962267875671  0.3587115406990051  0.7176135182380677  1.0000
  O   O6        1.0  0.8436661958694458  0.7703534364700317  0.37956976890563965  1.0000
