data_image109
_chemical_formula_structural       TiCaO3TiSiTiO4
_chemical_formula_sum              "Ti3 Ca1 O7 Si1"
_cell_length_a       3.8186440708121916
_cell_length_b       5.458271912552265
_cell_length_c       8.893888473510742
_cell_angle_alpha    73.46608133565759
_cell_angle_beta     72.51993564762327
_cell_angle_gamma    75.18416635116614

_space_group_name_H-M_alt    "P 1"
_space_group_IT_number       1

loop_
  _space_group_symop_operation_xyz
  'x, y, z'

loop_
  _atom_site_type_symbol
  _atom_site_label
  _atom_site_symmetry_multiplicity
  _atom_site_fract_x
  _atom_site_fract_y
  _atom_site_fract_z
  _atom_site_occupancy
  Ti  Ti1       1.0  0.1799349933862686  0.7720439434051514  0.24305224418640137  1.0000
  Ca  Ca1       1.0  0.6997613906860352  0.29006433486938477  0.4500935971736908  1.0000
  O   O1        1.0  0.2800418734550476  0.3631145358085633  0.30483612418174744  1.0000
  O   O2        1.0  0.9230805039405822  0.35103756189346313  0.8211593627929688  1.0000
  O   O3        1.0  0.44717213511466974  0.5708109140396118  0.6539798378944397  1.0000
  Ti  Ti2       1.0  0.8803760409355162  0.6914653182029724  0.6686140894889832  1.0000
  Si  Si1       1.0  0.3072466254234314  0.39834526181221014  0.10213413834571838  1.0000
  Ti  Ti3       1.0  0.4242302775382995  0.27138271927833557  0.8519352674484253  1.0000
  O   O4        1.0  0.7081558704376221  0.716425359249115  0.24115028977394104  1.0000
  O   O5        1.0  0.9937399625778197  0.8432379961013795  0.44928860664367676  1.0000
  O   O6        1.0  0.2267627269029617  0.10236220806837083  0.0952584370970726  1.0000
  O   O7        1.0  0.6540188193321228  0.9965822100639343  0.7370523810386658  1.0000
