data_image244
_chemical_formula_structural       CaSi2O5TiCaTiO5
_chemical_formula_sum              "Ca2 Si2 O10 Ti2"
_cell_length_a       5.509872883232316
_cell_length_b       5.5094821535862835
_cell_length_c       7.116717338562012
_cell_angle_alpha    104.18588964454712
_cell_angle_beta     104.14434059797534
_cell_angle_gamma    105.69308007342636

_space_group_name_H-M_alt    "P 1"
_space_group_IT_number       1

loop_
  _space_group_symop_operation_xyz
  'x, y, z'

loop_
  _atom_site_type_symbol
  _atom_site_label
  _atom_site_symmetry_multiplicity
  _atom_site_fract_x
  _atom_site_fract_y
  _atom_site_fract_z
  _atom_site_occupancy
  Ca  Ca1       1.0  0.3664370477199554  0.730887472629547  0.7401869893074037  1.0000
  Si  Si1       1.0  0.3761458098888397  0.7214494943618774  0.2406301200389862  1.0000
  Si  Si2       1.0  0.01576639711856842  0.08217791467905045  0.740247130393982  1.0000
  O   O1        1.0  0.6263978481292725  0.4714490473270416  0.7407402396202089  1.0000
  O   O2        1.0  0.7651969790458679  0.331741064786911  0.24069567024707794  1.0000
  O   O3        1.0  0.31720584630966187  0.1519242823123932  0.8989862799644471  1.0000
  O   O4        1.0  0.44565537571907043  0.023405935615301132  0.39921107888221746  1.0000
  O   O5        1.0  0.3826257288455963  0.5145623087882996  0.3730686008930207  1.0000
  Ti  Ti1       1.0  0.6954976320266724  0.40188661217689514  0.9906204342842103  1.0000
  Ca  Ca2       1.0  0.025296173989772797  0.07321090251207352  0.24057626724243167  1.0000
  Ti  Ti2       1.0  0.6962388753890991  0.4015935957431793  0.490172564983368  1.0000
  O   O6        1.0  0.9455602169036865  0.7800554037094116  0.5818939208984375  1.0000
  O   O7        1.0  0.009179279208183294  0.28945067524909973  0.607952892780304  1.0000
  O   O8        1.0  0.07420313358306885  0.6513601541519165  0.0815661400556564  1.0000
  O   O9        1.0  0.8088043928146362  0.08870644122362137  0.8732304573059083  1.0000
  O   O10       1.0  0.583273708820343  0.7149564623832703  0.10785426199436185  1.0000
