data_image104
_chemical_formula_structural       TiSi2O
_chemical_formula_sum              "Ti1 Si2 O1"
_cell_length_a       3.4254586084585843
_cell_length_b       3.6422928556041416
_cell_length_c       4.545410633087158
_cell_angle_alpha    100.86077528303778
_cell_angle_beta     90.60378442509011
_cell_angle_gamma    90.685500834203

_space_group_name_H-M_alt    "P 1"
_space_group_IT_number       1

loop_
  _space_group_symop_operation_xyz
  'x, y, z'

loop_
  _atom_site_type_symbol
  _atom_site_label
  _atom_site_symmetry_multiplicity
  _atom_site_fract_x
  _atom_site_fract_y
  _atom_site_fract_z
  _atom_site_occupancy
  Ti  Ti1       1.0  0.9593526124954224  0.5883150696754456  0.6904647946357727  1.0000
  Si  Si1       1.0  0.9587748646736145  0.9982324242591858  0.27705657482147217  1.0000
  Si  Si2       1.0  0.4573788344860077  0.4915294945240021  0.22845786809921265  1.0000
  O   O1        1.0  0.45754262804985046  0.4327847957611084  0.8475391864776611  1.0000
