data_image421
_chemical_formula_structural       TiOCa2SiO2TiO2SiO5
_chemical_formula_sum              "Ti2 O10 Ca2 Si2"
_cell_length_a       5.504660558159746
_cell_length_b       5.503904537689584
_cell_length_c       7.118599891662598
_cell_angle_alpha    104.25702475178494
_cell_angle_beta     104.19226220802143
_cell_angle_gamma    105.72011229425749

_space_group_name_H-M_alt    "P 1"
_space_group_IT_number       1

loop_
  _space_group_symop_operation_xyz
  'x, y, z'

loop_
  _atom_site_type_symbol
  _atom_site_label
  _atom_site_symmetry_multiplicity
  _atom_site_fract_x
  _atom_site_fract_y
  _atom_site_fract_z
  _atom_site_occupancy
  Ti  Ti1       1.0  0.3954383432865143  0.2616330683231354  0.19900834560394287  1.0000
  O   O1        1.0  0.01717064157128334  0.012100966647267342  0.10722368955612183  1.0000
  Ca  Ca1       1.0  0.06574434041976929  0.5907538533210754  0.9488040208816528  1.0000
  Ca  Ca2       1.0  0.7245654463768005  0.9336412549018861  0.44897547364234924  1.0000
  Si  Si1       1.0  0.07522710412740707  0.5822076201438904  0.4495047926902771  1.0000
  O   O2        1.0  0.7081586122512817  0.1487307846546173  0.8158421516418457  1.0000
  O   O3        1.0  0.4640548825263977  0.19291146099567413  0.4487566351890564  1.0000
  Ti  Ti2       1.0  0.3952229917049408  0.2629337012767792  0.6989599466323853  1.0000
  O   O4        1.0  0.0822065994143486  0.3756732940673828  0.5819836258888245  1.0000
  O   O5        1.0  0.2818286418914795  0.5753530859947205  0.31603625416755676  1.0000
  Si  Si2       1.0  0.7150785326957703  0.9421547651290894  0.9493368268013  1.0000
  O   O6        1.0  0.14440275728702545  0.8846748471260071  0.6073663234710693  1.0000
  O   O7        1.0  0.3256002962589264  0.3315938115119934  0.9488903880119324  1.0000
  O   O8        1.0  0.7731319069862366  0.5125395655632019  0.2909022867679596  1.0000
  O   O9        1.0  0.6451086401939392  0.6399697661399841  0.791057288646698  1.0000
  O   O10       1.0  0.5081360936164856  0.9492881298065186  0.08209755271673203  1.0000
