data_image558
_chemical_formula_structural       Ti2OSiCaO5
_chemical_formula_sum              "Ti2 O6 Si1 Ca1"
_cell_length_a       5.115195115401029
_cell_length_b       5.112677108614443
_cell_length_c       5.480343818664551
_cell_angle_alpha    62.69574541472947
_cell_angle_beta     62.677385781947876
_cell_angle_gamma    60.583661070916456

_space_group_name_H-M_alt    "P 1"
_space_group_IT_number       1

loop_
  _space_group_symop_operation_xyz
  'x, y, z'

loop_
  _atom_site_type_symbol
  _atom_site_label
  _atom_site_symmetry_multiplicity
  _atom_site_fract_x
  _atom_site_fract_y
  _atom_site_fract_z
  _atom_site_occupancy
  Ti  Ti1       1.0  0.17876484990119934  0.962959885597229  0.18137073516845703  1.0000
  Ti  Ti2       1.0  0.6919304728507996  0.47229924798011774  0.6456873416900635  1.0000
  O   O1        1.0  0.11878564953804016  0.20577667653560638  0.444158136844635  1.0000
  Si  Si1       1.0  0.4933272898197174  0.27579009532928467  0.24394434690475458  1.0000
  Ca  Ca1       1.0  0.9678108096122742  0.7522165179252625  0.8186327219009399  1.0000
  O   O2        1.0  0.5274801254272461  0.11770155280828476  0.9902191162109375  1.0000
  O   O3        1.0  0.7398004531860352  0.895754337310791  0.44154074788093567  1.0000
  O   O4        1.0  0.42488652467727667  0.5195679068565369  0.4439449906349182  1.0000
  O   O5        1.0  0.3358020782470703  0.6500266194343567  0.9911182522773743  1.0000
  O   O6        1.0  0.8686685562133789  0.3113398253917694  0.9914246201515198  1.0000
