data_image506
_chemical_formula_structural       CaSiTiCa2OTiSiO2
_chemical_formula_sum              "Ca3 Si2 Ti2 O3"
_cell_length_a       4.025478821732712
_cell_length_b       4.001320565554373
_cell_length_c       10.505749702453613
_cell_angle_alpha    89.9564258950492
_cell_angle_beta     90.58429103788978
_cell_angle_gamma    89.41350785138943

_space_group_name_H-M_alt    "P 1"
_space_group_IT_number       1

loop_
  _space_group_symop_operation_xyz
  'x, y, z'

loop_
  _atom_site_type_symbol
  _atom_site_label
  _atom_site_symmetry_multiplicity
  _atom_site_fract_x
  _atom_site_fract_y
  _atom_site_fract_z
  _atom_site_occupancy
  Ca  Ca1       1.0  0.5583154559135437  0.6605283617973328  0.03144848719239235  1.0000
  Si  Si1       1.0  0.03575354814529419  0.1577150821685791  0.6099200248718262  1.0000
  Ti  Ti1       1.0  0.5508773326873779  0.16069026291370392  0.7728697061538696  1.0000
  Ca  Ca2       1.0  0.01921413280069828  0.12509062886238098  0.2482624351978302  1.0000
  Ca  Ca3       1.0  0.5152400732040405  0.6595494747161865  0.47100308537483215  1.0000
  O   O1        1.0  0.1731608808040619  0.18196304142475128  0.4494166374206543  1.0000
  Ti  Ti2       1.0  0.0529523603618145  0.6605274677276611  0.7714804410934448  1.0000
  Si  Si2       1.0  0.055543843656778336  0.16020555794239044  0.9448863863945007  1.0000
  O   O2        1.0  0.5522861480712891  0.660964846611023  0.7724573016166687  1.0000
  O   O3        1.0  0.6144692897796631  0.7025928497314453  0.25008177757263184  1.0000
