data_image425
_chemical_formula_structural       TiOCa2OSiO4
_chemical_formula_sum              "Ti1 O6 Ca2 Si1"
_cell_length_a       5.267611136704033
_cell_length_b       5.268381669440565
_cell_length_c       5.270794868469238
_cell_angle_alpha    60.304451992794576
_cell_angle_beta     60.27004292186762
_cell_angle_gamma    60.24535658887391

_space_group_name_H-M_alt    "P 1"
_space_group_IT_number       1

loop_
  _space_group_symop_operation_xyz
  'x, y, z'

loop_
  _atom_site_type_symbol
  _atom_site_label
  _atom_site_symmetry_multiplicity
  _atom_site_fract_x
  _atom_site_fract_y
  _atom_site_fract_z
  _atom_site_occupancy
  Ti  Ti1       1.0  0.40528291463851923  0.1500653028488159  0.0192832350730896  1.0000
  O   O1        1.0  0.09863188117742537  0.9347993731498718  0.2817710041999817  1.0000
  Ca  Ca1       1.0  0.6564645767211914  0.40151169896125793  0.2711380124092102  1.0000
  Ca  Ca2       1.0  0.15366640686988836  0.8990641236305236  0.7681553363800049  1.0000
  O   O2        1.0  0.6672727465629577  0.8434967994689941  0.804680585861206  1.0000
  Si  Si1       1.0  0.9053153991699219  0.6501814126968384  0.5193086862564087  1.0000
  O   O3        1.0  0.1893855780363083  0.41160801053047175  0.7129963040351868  1.0000
  O   O4        1.0  0.7112684845924377  0.36593249440193176  0.7566716074943542  1.0000
  O   O5        1.0  0.6202811598777771  0.8892110586166382  0.32582610845565796  1.0000
  O   O6        1.0  0.14300121366977694  0.45735630393028254  0.23403397202491757  1.0000
