data_image546
_chemical_formula_structural       CaTiCaOSi
_chemical_formula_sum              "Ca2 Ti1 O1 Si1"
_cell_length_a       4.718297191481485
_cell_length_b       4.7212225439036954
_cell_length_c       4.127399921417236
_cell_angle_alpha    90.01411367602618
_cell_angle_beta     90.016121752063
_cell_angle_gamma    90.00265944817708

_space_group_name_H-M_alt    "P 1"
_space_group_IT_number       1

loop_
  _space_group_symop_operation_xyz
  'x, y, z'

loop_
  _atom_site_type_symbol
  _atom_site_label
  _atom_site_symmetry_multiplicity
  _atom_site_fract_x
  _atom_site_fract_y
  _atom_site_fract_z
  _atom_site_occupancy
  Ca  Ca1       1.0  0.08733745664358139  0.8939796090126036  0.027541566640138626  1.0000
  Ti  Ti1       1.0  0.08702724426984787  0.3940802812576294  0.5264202356338501  1.0000
  Ca  Ca2       1.0  0.5869490504264832  0.39481303095817566  0.0249798521399498  1.0000
  O   O1        1.0  0.0871666744351387  0.3942173421382904  0.026976358145475388  1.0000
  Si  Si1       1.0  0.5878196954727173  0.8938270807266234  0.5264858603477478  1.0000
