data_image519
_chemical_formula_structural       OCaSiOTiO3SiO
_chemical_formula_sum              "O6 Ca1 Si2 Ti1"
_cell_length_a       4.503091719357268
_cell_length_b       5.539771244707709
_cell_length_c       5.669904708862305
_cell_angle_alpha    98.8574118486785
_cell_angle_beta     87.550935795463
_cell_angle_gamma    63.51962540045622

_space_group_name_H-M_alt    "P 1"
_space_group_IT_number       1

loop_
  _space_group_symop_operation_xyz
  'x, y, z'

loop_
  _atom_site_type_symbol
  _atom_site_label
  _atom_site_symmetry_multiplicity
  _atom_site_fract_x
  _atom_site_fract_y
  _atom_site_fract_z
  _atom_site_occupancy
  O   O1        1.0  0.5268863439559937  0.962719202041626  0.25013941526412964  1.0000
  Ca  Ca1       1.0  0.01413105987012387  0.4356309771537781  0.7618760466575623  1.0000
  Si  Si1       1.0  0.7334231734275817  0.9360695481300354  0.49886190891265864  1.0000
  O   O2        1.0  0.08297758549451825  0.6504274606704712  0.4564751386642456  1.0000
  Ti  Ti1       1.0  0.5079212784767151  0.38913536071777344  0.24678148329257962  1.0000
  O   O3        1.0  0.964733123779297  0.20313474535942078  0.05556182935833932  1.0000
  O   O4        1.0  0.5209293961524962  0.9277060031890869  0.7521806359291077  1.0000
  O   O5        1.0  0.33342939615249634  0.6230362057685852  0.98972749710083  1.0000
  Si  Si2       1.0  0.3175298571586609  0.9275705218315125  0.015288494527339954  1.0000
  O   O6        1.0  0.7332552075386047  0.23744188249111176  0.5385847091674805  1.0000
