data_image484
_chemical_formula_structural       O2CaO2Ti2SiO2
_chemical_formula_sum              "O6 Ca1 Ti2 Si1"
_cell_length_a       5.263341265301672
_cell_length_b       5.014641443818005
_cell_length_c       5.1118574142456055
_cell_angle_alpha    92.4638907499224
_cell_angle_beta     98.23897370045611
_cell_angle_gamma    110.00559139003371

_space_group_name_H-M_alt    "P 1"
_space_group_IT_number       1

loop_
  _space_group_symop_operation_xyz
  'x, y, z'

loop_
  _atom_site_type_symbol
  _atom_site_label
  _atom_site_symmetry_multiplicity
  _atom_site_fract_x
  _atom_site_fract_y
  _atom_site_fract_z
  _atom_site_occupancy
  O   O1        1.0  0.9971516728401184  0.2709718346595764  0.8820819854736328  1.0000
  O   O2        1.0  0.5687150359153748  0.942528486251831  0.5119470357894897  1.0000
  Ca  Ca1       1.0  0.7527569532394409  0.8827078342437743  0.15584146976470947  1.0000
  O   O3        1.0  0.5265432596206665  0.48078268766403204  0.8777244091033936  1.0000
  O   O4        1.0  0.3106014132499695  0.9281495213508606  0.9510846138000488  1.0000
  Ti  Ti1       1.0  0.7007634043693542  0.3381164073944092  0.6024926900863647  1.0000
  Ti  Ti2       1.0  0.2741798162460327  0.64415043592453  0.6148658394813538  1.0000
  Si  Si1       1.0  0.28974267840385437  0.24296113848686218  0.017047593370079994  1.0000
  O   O5        1.0  0.937592089176178  0.6120530962944031  0.4263298213481903  1.0000
  O   O6        1.0  0.3492114245891571  0.3449850082397461  0.3383568525314331  1.0000
