data_image249
_chemical_formula_structural       CaTiSiO
_chemical_formula_sum              "Ca1 Ti1 Si1 O1"
_cell_length_a       3.1871631781417458
_cell_length_b       3.189072964956799
_cell_length_c       7.149426460266113
_cell_angle_alpha    77.13624238284302
_cell_angle_beta     77.12144983681047
_cell_angle_gamma    60.079088379482485

_space_group_name_H-M_alt    "P 1"
_space_group_IT_number       1

loop_
  _space_group_symop_operation_xyz
  'x, y, z'

loop_
  _atom_site_type_symbol
  _atom_site_label
  _atom_site_symmetry_multiplicity
  _atom_site_fract_x
  _atom_site_fract_y
  _atom_site_fract_z
  _atom_site_occupancy
  Ca  Ca1       1.0  0.46945732831954956  0.7054572105407715  0.6348329186439514  1.0000
  Ti  Ti1       1.0  0.004729628562927247  0.24120654165744781  0.026570145040750504  1.0000
  Si  Si1       1.0  0.24757929146289825  0.48445177078247065  0.29967620968818665  1.0000
  O   O1        1.0  0.7300875782966614  0.9657622575759888  0.8526821732521057  1.0000
