data_image384
_chemical_formula_structural       TiO2TiOSiCa2O7SiO2
_chemical_formula_sum              "Ti2 O12 Si2 Ca2"
_cell_length_a       5.029804059009464
_cell_length_b       5.033908533167214
_cell_length_c       9.92583179473877
_cell_angle_alpha    90.0147147333871
_cell_angle_beta     89.9800105398092
_cell_angle_gamma    119.82590381149113

_space_group_name_H-M_alt    "P 1"
_space_group_IT_number       1

loop_
  _space_group_symop_operation_xyz
  'x, y, z'

loop_
  _atom_site_type_symbol
  _atom_site_label
  _atom_site_symmetry_multiplicity
  _atom_site_fract_x
  _atom_site_fract_y
  _atom_site_fract_z
  _atom_site_occupancy
  Ti  Ti1       1.0  0.8569858074188234  0.5542093515396118  0.04964775964617729  1.0000
  O   O1        1.0  0.5750569105148315  0.5811768174171448  0.447449266910553  1.0000
  O   O2        1.0  0.8049471974372864  0.8609696626663208  0.1510656774044037  1.0000
  Ti  Ti2       1.0  0.5230206251144409  0.8875089883804321  0.5496371984481812  1.0000
  O   O3        1.0  0.5499314665794373  0.6058173179626465  0.9475252032279968  1.0000
  Si  Si1       1.0  0.856005609035492  0.554101824760437  0.5492364764213562  1.0000
  Ca  Ca1       1.0  0.18989230692386627  0.2207263559103012  0.2992394268512726  1.0000
  Ca  Ca2       1.0  0.18979695439338684  0.22069594264030457  0.7991245985031128  1.0000
  O   O4        1.0  0.5754159092903137  0.2461329996585846  0.6505826115608215  1.0000
  O   O5        1.0  0.8299304842948914  0.835599958896637  0.6511673927307129  1.0000
  O   O6        1.0  0.5501279234886169  0.1955835223197937  0.15113629400730133  1.0000
  O   O7        1.0  0.16490477323532104  0.8355201482772827  0.44779548048973083  1.0000
  O   O8        1.0  0.8039842844009399  0.19557368755340576  0.9479855895042419  1.0000
  O   O9        1.0  0.21477487683296206  0.8595694899559021  0.9478042125701904  1.0000
  O   O10       1.0  0.1648680716753006  0.581718385219574  0.6507994532585144  1.0000
  Si  Si2       1.0  0.5233848690986633  0.8871803879737854  0.04929807782173157  1.0000
  O   O11       1.0  0.21502920985221866  0.6059810519218445  0.15084008872509003  1.0000
  O   O12       1.0  0.8293609023094177  0.2464805394411087  0.4476581811904907  1.0000
