data_image76
_chemical_formula_structural       SiOCaTiSiCa2O7
_chemical_formula_sum              "Si2 O8 Ca3 Ti1"
_cell_length_a       5.286031534056738
_cell_length_b       5.284440790680101
_cell_length_c       6.992295742034912
_cell_angle_alpha    90.27057362202525
_cell_angle_beta     89.73273719087044
_cell_angle_gamma    115.24190322137869

_space_group_name_H-M_alt    "P 1"
_space_group_IT_number       1

loop_
  _space_group_symop_operation_xyz
  'x, y, z'

loop_
  _atom_site_type_symbol
  _atom_site_label
  _atom_site_symmetry_multiplicity
  _atom_site_fract_x
  _atom_site_fract_y
  _atom_site_fract_z
  _atom_site_occupancy
  Si  Si1       1.0  0.9460777044296265  0.7029074430465698  0.8565874695777893  1.0000
  O   O1        1.0  0.5115906000137329  0.1362428069114685  0.5190793871879578  1.0000
  Ca  Ca1       1.0  0.9730956554412842  0.6757189631462097  0.3745659291744232  1.0000
  Ti  Ti1       1.0  0.29220691323280334  0.3572426736354828  0.6016482710838318  1.0000
  Si  Si2       1.0  0.6379079818725586  0.011345752514898777  0.34733304381370544  1.0000
  Ca  Ca2       1.0  0.6108513474464417  0.03809630870819092  0.8294662237167358  1.0000
  Ca  Ca3       1.0  0.29198920726776123  0.3564947247505188  0.10164584219455719  1.0000
  O   O2        1.0  0.5084311962127686  0.6646856665611267  0.37111830711364746  1.0000
  O   O3        1.0  0.5522230863571167  0.09799395501613617  0.1453888714313507  1.0000
  O   O4        1.0  0.9845635294914246  0.1409367322921753  0.37140482664108276  1.0000
  O   O5        1.0  0.07177288830280304  0.5764352083206177  0.6841844916343689  1.0000
  O   O6        1.0  0.03328936547040939  0.6168506145477295  0.058170951902866364  1.0000
  O   O7        1.0  0.5996836423873901  0.5728122591972351  0.8318430185317993  1.0000
  O   O8        1.0  0.07595719397068024  0.04862017184495926  0.8319222331047058  1.0000
