data_image542
_chemical_formula_structural       SiCaO2TiO2TiSiO4CaSiO3
_chemical_formula_sum              "Si3 Ca2 O11 Ti2"
_cell_length_a       5.154017994814091
_cell_length_b       6.902832659051195
_cell_length_c       8.322338104248047
_cell_angle_alpha    73.20905368183861
_cell_angle_beta     67.82560145025519
_cell_angle_gamma    79.89378799479921

_space_group_name_H-M_alt    "P 1"
_space_group_IT_number       1

loop_
  _space_group_symop_operation_xyz
  'x, y, z'

loop_
  _atom_site_type_symbol
  _atom_site_label
  _atom_site_symmetry_multiplicity
  _atom_site_fract_x
  _atom_site_fract_y
  _atom_site_fract_z
  _atom_site_occupancy
  Si  Si1       1.0  0.6778930425643921  0.9486879110336305  0.7974144220352173  1.0000
  Ca  Ca1       1.0  0.24663640558719635  0.2724980413913727  0.6544660329818726  1.0000
  O   O1        1.0  0.42419376969337463  0.05309460684657097  0.9483048915863037  1.0000
  O   O2        1.0  0.4755918085575104  0.873089075088501  0.7077381014823914  1.0000
  Ti  Ti1       1.0  0.939768373966217  0.24053987860679626  0.37933334708213806  1.0000
  O   O3        1.0  0.35006994009017944  0.1917371153831482  0.23513451218605042  1.0000
  O   O4        1.0  0.9575108885765076  0.9943273067474365  0.2649210095405578  1.0000
  Ti  Ti2       1.0  0.36842700839042664  0.49292048811912537  0.23124174773693082  1.0000
  Si  Si2       1.0  0.29619961977005005  0.9984742999076843  0.17336063086986536  1.0000
  O   O5        1.0  0.9039167761802673  0.7791745066642761  0.8664820790290833  1.0000
  O   O6        1.0  0.856534481048584  0.11935618519783021  0.6380731463432312  1.0000
  O   O7        1.0  0.054787956178188324  0.4695320129394531  0.43361714482307434  1.0000
  O   O8        1.0  0.329113632440567  0.5443645715713501  0.6963306665420532  1.0000
  Ca  Ca2       1.0  0.6834706664085388  0.7070589661598206  0.4336490333080292  1.0000
  Si  Si3       1.0  0.23302218317985535  0.6893665194511414  0.8298304080963135  1.0000
  O   O9        1.0  0.6134617328643799  0.38447460532188416  0.37153011560440063  1.0000
  O   O10       1.0  0.2817521393299103  0.6051528453826904  0.018192848190665245  1.0000
  O   O11       1.0  0.444663941860199  0.7754787206649781  0.24126000702381128  1.0000
