data_image553
_chemical_formula_structural       CaTiSi2O6
_chemical_formula_sum              "Ca1 Ti1 Si2 O6"
_cell_length_a       5.151248246792019
_cell_length_b       5.753281724252521
_cell_length_c       5.389613628387451
_cell_angle_alpha    117.5343580390893
_cell_angle_beta     87.88928283223323
_cell_angle_gamma    92.04544634704955

_space_group_name_H-M_alt    "P 1"
_space_group_IT_number       1

loop_
  _space_group_symop_operation_xyz
  'x, y, z'

loop_
  _atom_site_type_symbol
  _atom_site_label
  _atom_site_symmetry_multiplicity
  _atom_site_fract_x
  _atom_site_fract_y
  _atom_site_fract_z
  _atom_site_occupancy
  Ca  Ca1       1.0  0.7409983277320862  0.3495565354824066  0.8005017042160034  1.0000
  Ti  Ti1       1.0  0.25598517060279846  0.7430782318115234  0.41732490062713623  1.0000
  Si  Si1       1.0  0.008459987118840218  0.8374959230422974  0.9284355640411377  1.0000
  Si  Si2       1.0  0.49792683124542236  0.1439281553030014  0.16413383185863495  1.0000
  O   O1        1.0  0.30014967918395996  0.9562104940414429  0.8991544842720032  1.0000
  O   O2        1.0  0.0008580004796385777  0.7220878601074219  0.15001273155212405  1.0000
  O   O3        1.0  0.9692867398262024  0.6006922125816345  0.6179699897766113  1.0000
  O   O4        1.0  0.46283453702926636  0.44078788161277777  0.21148389577865603  1.0000
  O   O5        1.0  0.4647033214569092  0.076943039894104  0.42610254883766174  1.0000
  O   O6        1.0  0.7941465377807617  0.07033691555261612  0.011051921173930173  1.0000
