data_image325
_chemical_formula_structural       OCaOTiOSiO5Si
_chemical_formula_sum              "O8 Ca1 Ti1 Si2"
_cell_length_a       5.645869829056419
_cell_length_b       5.646731583165351
_cell_length_c       5.647646427154541
_cell_angle_alpha    106.63438027938427
_cell_angle_beta     106.46870093125622
_cell_angle_gamma    115.31436844472861

_space_group_name_H-M_alt    "P 1"
_space_group_IT_number       1

loop_
  _space_group_symop_operation_xyz
  'x, y, z'

loop_
  _atom_site_type_symbol
  _atom_site_label
  _atom_site_symmetry_multiplicity
  _atom_site_fract_x
  _atom_site_fract_y
  _atom_site_fract_z
  _atom_site_occupancy
  O   O1        1.0  0.5657749176025391  0.38563644886016846  0.4377063512802124  1.0000
  Ca  Ca1       1.0  0.8303467631340027  0.32417231798171997  0.7646146416664124  1.0000
  O   O2        1.0  0.16735225915908816  0.46117800474166876  0.5658358931541443  1.0000
  Ti  Ti1       1.0  0.08108128607273102  0.07316219806671143  0.2647317051887512  1.0000
  O   O3        1.0  0.692592978477478  0.9865686893463134  0.9631285071372985  1.0000
  Si  Si1       1.0  0.33048877120018005  0.8239454030990601  0.7644231915473938  1.0000
  O   O4        1.0  0.16754978895187378  0.8598170876502991  0.9640144109725951  1.0000
  O   O5        1.0  0.7669996619224548  0.5872286558151245  0.09194950759410858  1.0000
  O   O6        1.0  0.21920053660869598  0.38607296347618103  0.09183326363563538  1.0000
  O   O7        1.0  0.29422843456268316  0.9869905710220338  0.5658636093139648  1.0000
  O   O8        1.0  0.7672302722930908  0.9342018365859985  0.43676701188087463  1.0000
  Si  Si2       1.0  0.5796139240264893  0.5731870532035828  0.2650735676288605  1.0000
