data_image573
_chemical_formula_structural       TiSiOCaOCaOTiO3SiO2
_chemical_formula_sum              "Ti2 Si2 O8 Ca2"
_cell_length_a       3.7525034678624785
_cell_length_b       3.735864788105867
_cell_length_c       10.776618957519531
_cell_angle_alpha    89.95598193342873
_cell_angle_beta     90.02333443119831
_cell_angle_gamma    90.0289078665033

_space_group_name_H-M_alt    "P 1"
_space_group_IT_number       1

loop_
  _space_group_symop_operation_xyz
  'x, y, z'

loop_
  _atom_site_type_symbol
  _atom_site_label
  _atom_site_symmetry_multiplicity
  _atom_site_fract_x
  _atom_site_fract_y
  _atom_site_fract_z
  _atom_site_occupancy
  Ti  Ti1       1.0  0.8674569725990295  0.764311909675598  0.8759799599647522  1.0000
  Si  Si1       1.0  0.8671140074729919  0.7645159959793091  0.22077283263206482  1.0000
  O   O1        1.0  0.36688974499702454  0.7643800377845763  0.8593968152999878  1.0000
  Ca  Ca1       1.0  0.3667171597480774  0.26502805948257446  0.704928994178772  1.0000
  O   O2        1.0  0.8671808838844299  0.7653852701187134  0.3854299783706665  1.0000
  Ca  Ca2       1.0  0.36693045496940613  0.2641463875770569  0.055663954466581345  1.0000
  O   O3        1.0  0.8673897385597229  0.76465904712677  0.05864574760198593  1.0000
  Ti  Ti2       1.0  0.36722245812416077  0.2651617228984832  0.37375280261039734  1.0000
  O   O4        1.0  0.3675500452518463  0.7646917700767517  0.22547848522663116  1.0000
  O   O5        1.0  0.8664935827255249  0.2649349868297577  0.8581804037094116  1.0000
  O   O6        1.0  0.8672980070114136  0.26480165123939514  0.22542524337768555  1.0000
  Si  Si2       1.0  0.867594301700592  0.7650941610336304  0.5518960952758789  1.0000
  O   O7        1.0  0.8669990301132202  0.26465222239494324  0.5578703284263611  1.0000
  O   O8        1.0  0.36740049719810486  0.7651336193084716  0.555396318435669  1.0000
