data_image89
_chemical_formula_structural       SiOCaOCaSiCaSiOTiO3CaO6
_chemical_formula_sum              "Si3 O12 Ca4 Ti1"
_cell_length_a       4.973155530139739
_cell_length_b       6.508324381854906
_cell_length_c       8.793159484863281
_cell_angle_alpha    88.05019524255066
_cell_angle_beta     78.01424304041477
_cell_angle_gamma    78.09489314012346

_space_group_name_H-M_alt    "P 1"
_space_group_IT_number       1

loop_
  _space_group_symop_operation_xyz
  'x, y, z'

loop_
  _atom_site_type_symbol
  _atom_site_label
  _atom_site_symmetry_multiplicity
  _atom_site_fract_x
  _atom_site_fract_y
  _atom_site_fract_z
  _atom_site_occupancy
  Si  Si1       1.0  0.5684600472450256  0.3111667037010193  0.09918124973773958  1.0000
  O   O1        1.0  0.23676839470863342  0.3072035610675812  0.11677731573581696  1.0000
  Ca  Ca1       1.0  0.9727883338928223  0.5825368762016295  0.9799278974533081  1.0000
  O   O2        1.0  0.8469889760017395  0.7270122766494751  0.7395546436309814  1.0000
  Ca  Ca2       1.0  0.8912842273712158  0.2428711652755737  0.3486180901527405  1.0000
  Si  Si2       1.0  0.19731202721595764  0.25457003712654114  0.6109105348587037  1.0000
  Ca  Ca3       1.0  0.5789496898651123  0.8356544971466063  0.3445793390274048  1.0000
  Si  Si3       1.0  0.06762223690748215  0.824029803276062  0.605741024017334  1.0000
  O   O3        1.0  0.34911099076271057  0.717315673828125  0.9056277275085449  1.0000
  Ti  Ti1       1.0  0.5714364051818848  0.551437497138977  0.7449126243591309  1.0000
  O   O4        1.0  0.30972814559936523  0.34348550438880915  0.7536686658859253  1.0000
  O   O5        1.0  0.7526844143867493  0.07332485914230345  0.13897891342639923  1.0000
  O   O6        1.0  0.7221171259880066  0.34967380762100214  0.916259765625  1.0000
  Ca  Ca4       1.0  0.16678991913795474  0.07073464989662169  0.939289391040802  1.0000
  O   O7        1.0  0.4146016538143158  0.18448394536972043  0.4440944194793701  1.0000
  O   O8        1.0  0.39106541872024536  0.6806069612503051  0.5761767625808716  1.0000
  O   O9        1.0  0.10097229480743408  0.03750478848814964  0.6950007081031799  1.0000
  O   O10       1.0  0.981981635093689  0.8836550712585449  0.4363439679145813  1.0000
  O   O11       1.0  0.8974218964576721  0.39355987310409546  0.5802123546600342  1.0000
  O   O12       1.0  0.6439804434776306  0.5012224912643432  0.2000073939561844  1.0000
