data_image182
_chemical_formula_structural       OCaOTiO3Si2O3
_chemical_formula_sum              "O8 Ca1 Ti1 Si2"
_cell_length_a       5.627200479457577
_cell_length_b       5.632155532602677
_cell_length_c       5.631911277770996
_cell_angle_alpha    106.63790550431425
_cell_angle_beta     106.5198784142396
_cell_angle_gamma    115.48542841844107

_space_group_name_H-M_alt    "P 1"
_space_group_IT_number       1

loop_
  _space_group_symop_operation_xyz
  'x, y, z'

loop_
  _atom_site_type_symbol
  _atom_site_label
  _atom_site_symmetry_multiplicity
  _atom_site_fract_x
  _atom_site_fract_y
  _atom_site_fract_z
  _atom_site_occupancy
  O   O1        1.0  0.07979795336723325  0.3759633600711822  0.08473347127437587  1.0000
  Ca  Ca1       1.0  0.4167874455451964  0.9124591350555419  0.28435707092285145  1.0000
  O   O2        1.0  0.4805936813354492  0.6501460075378418  0.957668125629425  1.0000
  Ti  Ti1       1.0  0.16674931347370148  0.16437764465808868  0.7844063639640808  1.0000
  O   O3        1.0  0.027855874970555212  0.8494807481765746  0.956898033618927  1.0000
  O   O4        1.0  0.5542067289352417  0.2505153715610504  0.0852416381239891  1.0000
  O   O5        1.0  0.679124653339386  0.8486790657043457  0.6111674904823303  1.0000
  Si  Si1       1.0  0.916898787021637  0.4127843081951141  0.2846018075942993  1.0000
  Si  Si2       1.0  0.6663615703582764  0.6619495153427124  0.784259021282196  1.0000
  O   O6        1.0  0.9541826844215393  0.2505854666233063  0.4845775365829468  1.0000
  O   O7        1.0  0.480429083108902  0.302005797624588  0.6115291714668274  1.0000
  O   O8        1.0  0.07875650376081467  0.7749244570732117  0.4830031991004944  1.0000
