data_image236
_chemical_formula_structural       CaOCaTiOSiO4
_chemical_formula_sum              "Ca2 O6 Ti1 Si1"
_cell_length_a       5.2701937657279405
_cell_length_b       5.270158725089453
_cell_length_c       5.278761863708496
_cell_angle_alpha    90.35480350571416
_cell_angle_beta     119.70791631746168
_cell_angle_gamma    119.91099465739732

_space_group_name_H-M_alt    "P 1"
_space_group_IT_number       1

loop_
  _space_group_symop_operation_xyz
  'x, y, z'

loop_
  _atom_site_type_symbol
  _atom_site_label
  _atom_site_symmetry_multiplicity
  _atom_site_fract_x
  _atom_site_fract_y
  _atom_site_fract_z
  _atom_site_occupancy
  Ca  Ca1       1.0  0.8973169326782228  0.3655065894126892  0.04269498959183701  1.0000
  O   O1        1.0  0.4031996726989746  0.8853757381439209  0.5894335508346558  1.0000
  Ca  Ca2       1.0  0.9063562154769899  0.8676032423973082  0.554075598716736  1.0000
  Ti  Ti1       1.0  0.401750385761261  0.1164407730102539  0.29815924167633057  1.0000
  O   O2        1.0  0.9231215715408326  0.4061287045478821  0.5887946486473083  1.0000
  Si  Si1       1.0  0.40164637565612793  0.616716742515564  0.7981935739517212  1.0000
  O   O3        1.0  0.34445998072624207  0.3774588108062744  0.5017740726470947  1.0000
  O   O4        1.0  0.3995897173881531  0.3475220501422882  0.006883921101689339  1.0000
  O   O5        1.0  0.45838901400566107  0.8553858399391174  0.09471967816352848  1.0000
  O   O6        1.0  0.8796401619911194  0.8274936676025391  0.007547912187874317  1.0000
