data_image118
_chemical_formula_structural       OSiCaOCaOTiO2
_chemical_formula_sum              "O5 Si1 Ca2 Ti1"
_cell_length_a       5.962875583104711
_cell_length_b       5.117397305709423
_cell_length_c       5.59983491897583
_cell_angle_alpha    112.23896674499089
_cell_angle_beta     114.66535107678209
_cell_angle_gamma    100.98644959818309

_space_group_name_H-M_alt    "P 1"
_space_group_IT_number       1

loop_
  _space_group_symop_operation_xyz
  'x, y, z'

loop_
  _atom_site_type_symbol
  _atom_site_label
  _atom_site_symmetry_multiplicity
  _atom_site_fract_x
  _atom_site_fract_y
  _atom_site_fract_z
  _atom_site_occupancy
  O   O1        1.0  0.8808997869491577  0.6453222036361694  0.9685064554214478  1.0000
  Si  Si1       1.0  0.027365617454051996  0.8629926443099977  0.34771668910980225  1.0000
  Ca  Ca1       1.0  0.4838120639324188  0.4672086834907532  0.4821668863296509  1.0000
  O   O2        1.0  0.8281539082527161  0.6876838207244873  0.4274415671825409  1.0000
  Ca  Ca2       1.0  0.7043464183807373  0.19098253548145294  0.02083839848637581  1.0000
  O   O3        1.0  0.40818706154823303  0.02777339704334736  0.12458894401788712  1.0000
  Ti  Ti1       1.0  0.13231150805950165  0.6740716099739075  0.7760331034660339  1.0000
  O   O4        1.0  0.07480508089065552  0.22761946916580203  0.45567944645881653  1.0000
  O   O5        1.0  0.31168419122695923  0.834466814994812  0.54118412733078  1.0000
