data_image456
_chemical_formula_structural       SiOCa2OSiO2CaTiO4
_chemical_formula_sum              "Si2 O8 Ca3 Ti1"
_cell_length_a       5.6061372795319295
_cell_length_b       6.9596765396467966
_cell_length_c       6.199014186859131
_cell_angle_alpha    112.1345555757454
_cell_angle_beta     94.17621252527668
_cell_angle_gamma    110.41293904297181

_space_group_name_H-M_alt    "P 1"
_space_group_IT_number       1

loop_
  _space_group_symop_operation_xyz
  'x, y, z'

loop_
  _atom_site_type_symbol
  _atom_site_label
  _atom_site_symmetry_multiplicity
  _atom_site_fract_x
  _atom_site_fract_y
  _atom_site_fract_z
  _atom_site_occupancy
  Si  Si1       1.0  0.07751159369945528  0.6750717759132385  0.6605151891708374  1.0000
  O   O1        1.0  0.5052282810211182  0.44562017917633057  0.022851550951600075  1.0000
  Ca  Ca1       1.0  0.5560908317565918  0.580145537853241  0.43902215361595154  1.0000
  Ca  Ca2       1.0  0.6281117796897888  0.1700807809829712  0.03888905793428421  1.0000
  O   O2        1.0  0.189403235912323  0.911220133304596  0.6253537535667418  1.0000
  Si  Si2       1.0  0.6007906794548035  0.6678926348686218  0.968903660774231  1.0000
  O   O3        1.0  0.33767279982566833  0.6349347829818726  0.7686659693717957  1.0000
  O   O4        1.0  0.7077277302742004  0.030172459781169888  0.6763622760772705  1.0000
  Ca  Ca3       1.0  0.0593990236520767  0.1893016993999481  0.5627859830856323  1.0000
  Ti  Ti1       1.0  0.45916444063186646  0.000199152622371912  0.44332122802734375  1.0000
  O   O5        1.0  0.9213555455207825  0.4414173662662506  0.41171181201934814  1.0000
  O   O6        1.0  0.6687341332435608  0.9087370038032532  0.19746583700180054  1.0000
  O   O7        1.0  0.37262845039367676  0.1970110982656479  0.35595059394836426  1.0000
  O   O8        1.0  0.8491290807723999  0.6855047941207885  0.8274836540222168  1.0000
