data_image364
_chemical_formula_structural       CaSi2TiO8
_chemical_formula_sum              "Ca1 Si2 Ti1 O8"
_cell_length_a       5.343707004399536
_cell_length_b       5.346979255072426
_cell_length_c       6.522977352142334
_cell_angle_alpha    89.95645321939058
_cell_angle_beta     90.04073092354754
_cell_angle_gamma    119.96366821803282

_space_group_name_H-M_alt    "P 1"
_space_group_IT_number       1

loop_
  _space_group_symop_operation_xyz
  'x, y, z'

loop_
  _atom_site_type_symbol
  _atom_site_label
  _atom_site_symmetry_multiplicity
  _atom_site_fract_x
  _atom_site_fract_y
  _atom_site_fract_z
  _atom_site_occupancy
  Ca  Ca1       1.0  0.8504751920700073  0.14878550171852112  0.04754522815346717  1.0000
  Si  Si1       1.0  0.5171146988868713  0.48201161623001104  0.8082673549652098  1.0000
  Si  Si2       1.0  0.18375805020332336  0.8154233694076538  0.2871192395687103  1.0000
  Ti  Ti1       1.0  0.8507357239723206  0.1487373262643814  0.5474799275398254  1.0000
  O   O1        1.0  0.015341750346124172  0.9846296906471252  0.36227539181709284  1.0000
  O   O2        1.0  0.517380952835083  0.4818172752857209  0.05492355301976203  1.0000
  O   O3        1.0  0.685566246509552  0.3126692771911621  0.7327128648757933  1.0000
  O   O4        1.0  0.686203122138977  0.8195753693580629  0.7330818772315978  1.0000
  O   O5        1.0  0.014915957115590572  0.4778846502304077  0.3622902333736419  1.0000
  O   O6        1.0  0.5208638310432434  0.9834537506103517  0.3618392348289489  1.0000
  O   O7        1.0  0.18304237723350525  0.8149210810661316  0.0403551310300827  1.0000
  O   O8        1.0  0.17989300191402435  0.31336766481399536  0.7328120470046996  1.0000
