data_image340
_chemical_formula_structural       CaTi2CaSiCaSiO2
_chemical_formula_sum              "Ca3 Ti2 Si2 O2"
_cell_length_a       4.030910672190252
_cell_length_b       4.029546384154483
_cell_length_c       10.051692962646484
_cell_angle_alpha    90.01417514853604
_cell_angle_beta     89.98286555905801
_cell_angle_gamma    90.0104526944194

_space_group_name_H-M_alt    "P 1"
_space_group_IT_number       1

loop_
  _space_group_symop_operation_xyz
  'x, y, z'

loop_
  _atom_site_type_symbol
  _atom_site_label
  _atom_site_symmetry_multiplicity
  _atom_site_fract_x
  _atom_site_fract_y
  _atom_site_fract_z
  _atom_site_occupancy
  Ca  Ca1       1.0  0.2470492422580719  0.437869668006897  0.26679155230522156  1.0000
  Ti  Ti1       1.0  0.24707797169685364  0.937946081161499  0.9951038956642151  1.0000
  Ti  Ti2       1.0  0.7469402551651001  0.43801432847976685  0.9951207637786865  1.0000
  Ca  Ca2       1.0  0.2469816505908966  0.4378056228160858  0.7234923839569092  1.0000
  Si  Si1       1.0  0.746948778629303  0.9379711151123047  0.1774928718805313  1.0000
  Ca  Ca3       1.0  0.7472714185714722  0.9376999735832214  0.4943934679031372  1.0000
  Si  Si2       1.0  0.7468850612640381  0.9379616379737854  0.8126939535140991  1.0000
  O   O1        1.0  0.24689172208309174  0.4380576312541961  0.9951140880584717  1.0000
  O   O2        1.0  0.24686506390571594  0.4385966956615448  0.49445825815200806  1.0000
