data_image578
_chemical_formula_structural       SiO3CaTiSiO5
_chemical_formula_sum              "Si2 O8 Ca1 Ti1"
_cell_length_a       4.9720048817828
_cell_length_b       5.176735128836562
_cell_length_c       8.213111877441406
_cell_angle_alpha    86.22169913748094
_cell_angle_beta     64.79071087935984
_cell_angle_gamma    68.70332718963967

_space_group_name_H-M_alt    "P 1"
_space_group_IT_number       1

loop_
  _space_group_symop_operation_xyz
  'x, y, z'

loop_
  _atom_site_type_symbol
  _atom_site_label
  _atom_site_symmetry_multiplicity
  _atom_site_fract_x
  _atom_site_fract_y
  _atom_site_fract_z
  _atom_site_occupancy
  Si  Si1       1.0  0.7952208518981935  0.2585134208202362  0.6680000424385071  1.0000
  O   O1        1.0  0.6225610375404358  0.1657157987356186  0.8693645000457764  1.0000
  O   O2        1.0  0.07508368790149687  0.0818787068128586  0.16445215046405792  1.0000
  O   O3        1.0  0.6200780272483826  0.6070051789283752  0.26255741715431213  1.0000
  Ca  Ca1       1.0  0.5514447093009949  0.7544962167739868  0.9964469075202942  1.0000
  Ti  Ti1       1.0  0.2594545483589172  0.5907500982284546  0.49367716908454895  1.0000
  Si  Si2       1.0  0.001459174673072969  0.4055206775665284  0.200954869389534  1.0000
  O   O4        1.0  0.1783550530672073  0.531332552433014  0.011161621659994125  1.0000
  O   O5        1.0  0.12582115828990936  0.4622443914413452  0.34657716751098633  1.0000
  O   O6        1.0  0.9013975858688354  0.5106795430183411  0.6959104537963867  1.0000
  O   O7        1.0  0.5559631586074829  0.3512269854545593  0.5676007270812988  1.0000
  O   O8        1.0  0.09977687150239942  0.9610707759857179  0.5724514722824097  1.0000
