data_image509
_chemical_formula_structural       SiOTiCaO3SiO4
_chemical_formula_sum              "Si2 O8 Ti1 Ca1"
_cell_length_a       5.475973133370377
_cell_length_b       5.9659172411619315
_cell_length_c       6.396130561828613
_cell_angle_alpha    78.6933685239117
_cell_angle_beta     57.6857831597659
_cell_angle_gamma    72.85038599133783

_space_group_name_H-M_alt    "P 1"
_space_group_IT_number       1

loop_
  _space_group_symop_operation_xyz
  'x, y, z'

loop_
  _atom_site_type_symbol
  _atom_site_label
  _atom_site_symmetry_multiplicity
  _atom_site_fract_x
  _atom_site_fract_y
  _atom_site_fract_z
  _atom_site_occupancy
  Si  Si1       1.0  0.6131511330604553  0.4511852562427521  0.8792088627815247  1.0000
  O   O1        1.0  0.27977117896080017  0.41463473439216614  0.02926209196448326  1.0000
  Ti  Ti1       1.0  0.6454353928565979  0.6164973974227905  0.3254441916942596  1.0000
  Ca  Ca1       1.0  0.7955562472343444  0.9219998121261598  0.6288955211639404  1.0000
  O   O2        1.0  0.8784514665603638  0.8505417704582214  0.20727333426475517  1.0000
  O   O3        1.0  0.28760436177253723  0.0953711047768593  0.934782087802887  1.0000
  O   O4        1.0  0.6639916300773621  0.6298121213912964  0.006212204694747925  1.0000
  Si  Si2       1.0  0.939552366733551  0.10371770709753036  0.08479388058185577  1.0000
  O   O5        1.0  0.7089459896087648  0.5636051297187805  0.6092211008071899  1.0000
  O   O6        1.0  0.8301014900207518  0.18665538728237155  0.8739984631538391  1.0000
  O   O7        1.0  0.27653566002845764  0.7537663578987122  0.48950520157814026  1.0000
  O   O8        1.0  0.747515857219696  0.26756495237350464  0.3205729424953461  1.0000
