data_image127
_chemical_formula_structural       OTiO2SiCaO2CaO
_chemical_formula_sum              "O6 Ti1 Si1 Ca2"
_cell_length_a       5.261131157062132
_cell_length_b       5.495449775832655
_cell_length_c       5.598201274871826
_cell_angle_alpha    79.7935692399899
_cell_angle_beta     88.04324895073952
_cell_angle_gamma    96.29800364746332

_space_group_name_H-M_alt    "P 1"
_space_group_IT_number       1

loop_
  _space_group_symop_operation_xyz
  'x, y, z'

loop_
  _atom_site_type_symbol
  _atom_site_label
  _atom_site_symmetry_multiplicity
  _atom_site_fract_x
  _atom_site_fract_y
  _atom_site_fract_z
  _atom_site_occupancy
  O   O1        1.0  0.24864219129085544  0.14307823777198792  0.11677989363670349  1.0000
  Ti  Ti1       1.0  0.911897599697113  0.2525327503681183  0.5106001496315002  1.0000
  O   O2        1.0  0.6605280041694641  0.27968883514404297  0.752036452293396  1.0000
  O   O3        1.0  0.7539439797401428  0.03844913840293884  0.35059693455696106  1.0000
  Si  Si1       1.0  0.4059387147426605  0.09581146389245987  0.8809672594070435  1.0000
  Ca  Ca1       1.0  0.8969485759735107  0.8422651886940002  0.04918849095702171  1.0000
  O   O4        1.0  0.48148077726364136  0.814520001411438  0.9550272822380067  1.0000
  O   O5        1.0  0.17829629778862  0.07705965638160706  0.6746494174003601  1.0000
  Ca  Ca2       1.0  0.3662273585796356  0.8288922309875488  0.40887251496315  1.0000
  O   O6        1.0  0.012586244381964205  0.5632659792900085  0.3625146746635437  1.0000
