data_image179
_chemical_formula_structural       CaTiCaO3SiO3
_chemical_formula_sum              "Ca2 Ti1 O6 Si1"
_cell_length_a       5.256746843307357
_cell_length_b       5.258923473626197
_cell_length_c       5.292919635772705
_cell_angle_alpha    119.8919515263087
_cell_angle_beta     119.8114226074313
_cell_angle_gamma    89.98589752436368

_space_group_name_H-M_alt    "P 1"
_space_group_IT_number       1

loop_
  _space_group_symop_operation_xyz
  'x, y, z'

loop_
  _atom_site_type_symbol
  _atom_site_label
  _atom_site_symmetry_multiplicity
  _atom_site_fract_x
  _atom_site_fract_y
  _atom_site_fract_z
  _atom_site_occupancy
  Ca  Ca1       1.0  0.08993491530418396  0.16570603847503662  0.4325467348098755  1.0000
  Ti  Ti1       1.0  0.3400368392467499  0.9156613945960999  0.9326615333557129  1.0000
  Ca  Ca2       1.0  0.5904636383056641  0.6659672856330872  0.43282005190849304  1.0000
  O   O1        1.0  0.11256469786167145  0.6210712194442749  0.9322660565376282  1.0000
  O   O2        1.0  0.6009035706520081  0.17661027610301971  0.45369869470596313  1.0000
  O   O3        1.0  0.04601266607642174  0.14328216016292572  0.9327220320701599  1.0000
  Si  Si1       1.0  0.8402795195579529  0.4156392216682434  0.9325887560844421  1.0000
  O   O4        1.0  0.5681241750717163  0.21057429909706113  0.9324315190315247  1.0000
  O   O5        1.0  0.07943284511566158  0.6548718214035033  0.4113731384277344  1.0000
  O   O6        1.0  0.6348493695259094  0.6883410215377808  0.9323602318763733  1.0000
