data_image593
_chemical_formula_structural       CaOTiOCaSiO4
_chemical_formula_sum              "Ca2 O6 Ti1 Si1"
_cell_length_a       5.295391060415719
_cell_length_b       5.295753889639582
_cell_length_c       5.29581356048584
_cell_angle_alpha    59.9953172017754
_cell_angle_beta     59.99752448825222
_cell_angle_gamma    59.98106371770242

_space_group_name_H-M_alt    "P 1"
_space_group_IT_number       1

loop_
  _space_group_symop_operation_xyz
  'x, y, z'

loop_
  _atom_site_type_symbol
  _atom_site_label
  _atom_site_symmetry_multiplicity
  _atom_site_fract_x
  _atom_site_fract_y
  _atom_site_fract_z
  _atom_site_occupancy
  Ca  Ca1       1.0  0.3323090374469757  0.6096784472465515  0.22856608033180237  1.0000
  O   O1        1.0  0.8208333849906921  0.6205312609672546  0.7181442379951476  1.0000
  Ti  Ti1       1.0  0.08191166073083878  0.35949423909187317  0.9783822894096375  1.0000
  O   O2        1.0  0.8209792971611023  0.6206849813461304  0.2395021468400956  1.0000
  Ca  Ca2       1.0  0.8316706418991089  0.1097022145986557  0.7282868027687073  1.0000
  Si  Si1       1.0  0.5818161964416504  0.8598764538764954  0.47876477241516124  1.0000
  O   O3        1.0  0.3421878516674042  0.09881407767534256  0.7180489301681519  1.0000
  O   O4        1.0  0.342883437871933  0.6201995611190796  0.7177107930183411  1.0000
  O   O5        1.0  0.34270578622817993  0.0986180305480957  0.2394278347492218  1.0000
  O   O6        1.0  0.820462167263031  0.09901744872331619  0.2400079369544983  1.0000
