data_image101
_chemical_formula_structural       CaTiCaO2SiOTiSiO7
_chemical_formula_sum              "Ca2 Ti2 O10 Si2"
_cell_length_a       5.499512340988569
_cell_length_b       5.4996699645639255
_cell_length_c       7.117603302001953
_cell_angle_alpha    104.2940525215949
_cell_angle_beta     104.24353522664566
_cell_angle_gamma    105.78668168000642

_space_group_name_H-M_alt    "P 1"
_space_group_IT_number       1

loop_
  _space_group_symop_operation_xyz
  'x, y, z'

loop_
  _atom_site_type_symbol
  _atom_site_label
  _atom_site_symmetry_multiplicity
  _atom_site_fract_x
  _atom_site_fract_y
  _atom_site_fract_z
  _atom_site_occupancy
  Ca  Ca1       1.0  0.45280832052230835  0.4801015853881836  0.6723642945289611  1.0000
  Ti  Ti1       1.0  0.7826442122459412  0.1518481969833374  0.4222488105297088  1.0000
  Ca  Ca2       1.0  0.11189629137516022  0.8228580951690674  0.17216950654983523  1.0000
  O   O1        1.0  0.6696969270706177  0.4645184576511383  0.03891164809465411  1.0000
  O   O2        1.0  0.8514437079429626  0.0818188488483429  0.1717208921909332  1.0000
  Si  Si1       1.0  0.1013671979308128  0.8321027159690856  0.6720498800277709  1.0000
  O   O3        1.0  0.7126519680023193  0.22116251289844513  0.6718387603759765  1.0000
  Ti  Ti2       1.0  0.7818974852561951  0.15106622874736786  0.9219390153884887  1.0000
  Si  Si2       1.0  0.46306493878364563  0.4705904424190521  0.172457829117775  1.0000
  O   O4        1.0  0.03160670772194862  0.529364824295044  0.5138627290725708  1.0000
  O   O5        1.0  0.8945019245147705  0.8386024832725525  0.8049941062927245  1.0000
  O   O6        1.0  0.4040297269821167  0.9023185968399048  0.8302453160285949  1.0000
  O   O7        1.0  0.469138503074646  0.2636152505874634  0.3048940002918243  1.0000
  O   O8        1.0  0.16033616662025452  0.40111464262008667  0.013793220743536947  1.0000
  O   O9        1.0  0.09521609544754028  0.03910531476140022  0.5392326712608337  1.0000
  O   O10       1.0  0.5319681167602539  0.7731102705001831  0.3304003775119781  1.0000
