data_image203
_chemical_formula_structural       O3CaSiO3SiOTiO
_chemical_formula_sum              "O8 Ca1 Si2 Ti1"
_cell_length_a       5.345586221111724
_cell_length_b       5.3481152287766305
_cell_length_c       6.516333103179932
_cell_angle_alpha    89.95442465254412
_cell_angle_beta     90.03278058076978
_cell_angle_gamma    119.9765773660287

_space_group_name_H-M_alt    "P 1"
_space_group_IT_number       1

loop_
  _space_group_symop_operation_xyz
  'x, y, z'

loop_
  _atom_site_type_symbol
  _atom_site_label
  _atom_site_symmetry_multiplicity
  _atom_site_fract_x
  _atom_site_fract_y
  _atom_site_fract_z
  _atom_site_occupancy
  O   O1        1.0  0.16245175898075104  0.007261305116117  0.04402201250195503  1.0000
  O   O2        1.0  0.9946446418762208  0.17664216458797455  0.3658764362335205  1.0000
  O   O3        1.0  0.49227198958396917  0.17195093631744385  0.6734670400619507  1.0000
  Ca  Ca1       1.0  0.32738223671913147  0.8427847623825073  0.3586210310459137  1.0000
  Si  Si1       1.0  0.9938839077949525  0.17653246223926544  0.1194385513663292  1.0000
  O   O4        1.0  0.6599640250205994  0.5095555186271667  0.3512049615383148  1.0000
  O   O5        1.0  0.4924520552158356  0.6782351136207581  0.6738700866699219  1.0000
  O   O6        1.0  0.998179316520691  0.6779921054840088  0.673481822013855  1.0000
  Si  Si2       1.0  0.6609160304069519  0.5096316933631897  0.5978138446807861  1.0000
  O   O7        1.0  0.6566877365112305  0.007339058443903923  0.04386881738901138  1.0000
  Ti  Ti1       1.0  0.32764461636543274  0.8425750136375427  0.8589097857475281  1.0000
  O   O8        1.0  0.16276316344738007  0.5134491920471191  0.04390859976410866  1.0000
