data_image589
_chemical_formula_structural       TiSiO2CaO4SiO2
_chemical_formula_sum              "Ti1 Si2 O8 Ca1"
_cell_length_a       5.341083283698961
_cell_length_b       5.340948418991047
_cell_length_c       6.509326457977295
_cell_angle_alpha    90.03118231801751
_cell_angle_beta     90.06626216594344
_cell_angle_gamma    119.91298575154288

_space_group_name_H-M_alt    "P 1"
_space_group_IT_number       1

loop_
  _space_group_symop_operation_xyz
  'x, y, z'

loop_
  _atom_site_type_symbol
  _atom_site_label
  _atom_site_symmetry_multiplicity
  _atom_site_fract_x
  _atom_site_fract_y
  _atom_site_fract_z
  _atom_site_occupancy
  Ti  Ti1       1.0  0.6695907115936279  0.558908224105835  0.037503503262996674  1.0000
  Si  Si1       1.0  0.3367939591407776  0.8921969532966614  0.7756679654121399  1.0000
  O   O1        1.0  0.3358275890350342  0.8925754427909851  0.5287960767745972  1.0000
  O   O2        1.0  0.34027257561683655  0.3948032259941101  0.22334909439086914  1.0000
  Ca  Ca1       1.0  0.6698139905929565  0.5590012669563293  0.5374373197555542  1.0000
  O   O3        1.0  0.505385994911194  0.23001256585121158  0.8514117002487183  1.0000
  O   O4        1.0  0.0035974527709186186  0.2261490970849991  0.5457277297973633  1.0000
  O   O5        1.0  0.999634623527527  0.7236105799674988  0.8512551784515381  1.0000
  O   O6        1.0  0.8344795107841492  0.394774854183197  0.22319196164608002  1.0000
  Si  Si2       1.0  0.0028024530038237637  0.22615870833396912  0.2990415394306183  1.0000
  O   O7        1.0  0.5052623152732849  0.7232459187507629  0.8512664437294006  1.0000
  O   O8        1.0  0.8342314362525939  0.8884136676788329  0.2233985811471939  1.0000
