data_image139
_chemical_formula_structural       CaTiOSi
_chemical_formula_sum              "Ca1 Ti1 O1 Si1"
_cell_length_a       3.131454782483173
_cell_length_b       3.3826198480313456
_cell_length_c       6.521353244781494
_cell_angle_alpha    104.72541730866706
_cell_angle_beta     103.09914467097539
_cell_angle_gamma    89.92424872720308

_space_group_name_H-M_alt    "P 1"
_space_group_IT_number       1

loop_
  _space_group_symop_operation_xyz
  'x, y, z'

loop_
  _atom_site_type_symbol
  _atom_site_label
  _atom_site_symmetry_multiplicity
  _atom_site_fract_x
  _atom_site_fract_y
  _atom_site_fract_z
  _atom_site_occupancy
  Ca  Ca1       1.0  0.9913861751556398  0.6675736308097839  0.09013361483812334  1.0000
  Ti  Ti1       1.0  0.6980267763137817  0.38172122836112976  0.5145574808120728  1.0000
  O   O1        1.0  0.5527200102806091  0.22844508290290833  0.21453335881233218  1.0000
  Si  Si1       1.0  0.28719621896743774  0.9736806154251099  0.6977784633636476  1.0000
