data_image258
_chemical_formula_structural       CaTiOCaOSiO4
_chemical_formula_sum              "Ca2 Ti1 O6 Si1"
_cell_length_a       5.259230225081918
_cell_length_b       5.2668074170484935
_cell_length_c       5.297243595123291
_cell_angle_alpha    119.80242189063223
_cell_angle_beta     119.79601501476736
_cell_angle_gamma    89.94615273732906

_space_group_name_H-M_alt    "P 1"
_space_group_IT_number       1

loop_
  _space_group_symop_operation_xyz
  'x, y, z'

loop_
  _atom_site_type_symbol
  _atom_site_label
  _atom_site_symmetry_multiplicity
  _atom_site_fract_x
  _atom_site_fract_y
  _atom_site_fract_z
  _atom_site_occupancy
  Ca  Ca1       1.0  0.7001059651374817  0.018604042008519173  0.06982874870300293  1.0000
  Ti  Ti1       1.0  0.9501758813858032  0.7686187624931335  0.5699085593223572  1.0000
  O   O1        1.0  0.176468163728714  0.06547737121582031  0.5695287585258484  1.0000
  Ca  Ca2       1.0  0.20043012499809265  0.5186936259269714  0.06982643157243733  1.0000
  O   O2        1.0  0.7248247861862183  0.47250875830650324  0.5697134733200073  1.0000
  Si  Si1       1.0  0.45054832100868225  0.268680602312088  0.5699806809425354  1.0000
  O   O3        1.0  0.2473631650209427  0.5435867309570312  0.5701960325241089  1.0000
  O   O4        1.0  0.6891809701919556  0.5077093243598937  0.048501983284950256  1.0000
  O   O5        1.0  0.6542391180992126  0.9947085380554199  0.5696620345115662  1.0000
  O   O6        1.0  0.2112876921892166  0.03019485995173454  0.09101986140012741  1.0000
