data_image376
_chemical_formula_structural       O2CaO2TiCaO2TiSiO
_chemical_formula_sum              "O7 Ca2 Ti2 Si1"
_cell_length_a       5.342977236648741
_cell_length_b       5.872084278073622
_cell_length_c       6.72613000869751
_cell_angle_alpha    70.83162253846658
_cell_angle_beta     78.70381166735335
_cell_angle_gamma    68.34264552000926

_space_group_name_H-M_alt    "P 1"
_space_group_IT_number       1

loop_
  _space_group_symop_operation_xyz
  'x, y, z'

loop_
  _atom_site_type_symbol
  _atom_site_label
  _atom_site_symmetry_multiplicity
  _atom_site_fract_x
  _atom_site_fract_y
  _atom_site_fract_z
  _atom_site_occupancy
  O   O1        1.0  0.657802939414978  0.11045690625905989  0.2786252796649933  1.0000
  O   O2        1.0  0.29326146841049194  0.8778513073921204  0.5277086496353149  1.0000
  Ca  Ca1       1.0  0.07354925572872166  0.7929611206054686  0.3244231045246124  1.0000
  O   O3        1.0  0.4576741456985474  0.12723226845264435  0.6816750168800354  1.0000
  O   O4        1.0  0.5382855534553529  0.46056833863258356  0.8907326459884642  1.0000
  Ti  Ti1       1.0  0.6113008856773376  0.1038297787308693  0.9475775361061095  1.0000
  Ca  Ca2       1.0  0.7950607538223267  0.47694259881973267  0.13672041893005366  1.0000
  O   O5        1.0  0.13371291756629944  0.38612040877342224  0.34566667675971985  1.0000
  O   O6        1.0  0.43200477957725536  0.8478245735168456  0.08691810071468353  1.0000
  Ti  Ti2       1.0  0.3202761113643646  0.8018777966499328  0.8420787453651427  1.0000
  Si  Si1       1.0  0.38177376985549927  0.13583102822303772  0.45019066333770746  1.0000
  O   O7        1.0  0.9564829468727113  0.8414039015769958  0.9710206985473632  1.0000
