data_image228
_chemical_formula_structural       SiCaTiOCaO5
_chemical_formula_sum              "Si1 Ca2 Ti1 O6"
_cell_length_a       5.288152360635149
_cell_length_b       5.288630274928528
_cell_length_c       5.281953811645508
_cell_angle_alpha    60.30652145633881
_cell_angle_beta     59.963699206535026
_cell_angle_gamma    59.996846790967695

_space_group_name_H-M_alt    "P 1"
_space_group_IT_number       1

loop_
  _space_group_symop_operation_xyz
  'x, y, z'

loop_
  _atom_site_type_symbol
  _atom_site_label
  _atom_site_symmetry_multiplicity
  _atom_site_fract_x
  _atom_site_fract_y
  _atom_site_fract_z
  _atom_site_occupancy
  Si  Si1       1.0  0.008565740659832932  0.7757628560066223  0.9899546504020691  1.0000
  Ca  Ca1       1.0  0.757365047931671  0.5307559967041016  0.7372778654098511  1.0000
  Ti  Ti1       1.0  0.5088396668434142  0.2754975259304047  0.4899108409881592  1.0000
  O   O1        1.0  0.769801676273346  0.07098783552646637  0.1734430491924286  1.0000
  Ca  Ca2       1.0  0.25962576270103455  0.02075568027794361  0.24298469722270966  1.0000
  O   O2        1.0  0.739772379398346  0.5659202337265015  0.2576155960559845  1.0000
  O   O3        1.0  0.22026614844799036  0.5649736523628236  0.25763797760009755  1.0000
  O   O4        1.0  0.79666268825531  0.9860951900482178  0.7234458327293396  1.0000
  O   O5        1.0  0.27703091502189636  0.9853436946868896  0.72315913438797  1.0000
  O   O6        1.0  0.2472791224718094  0.4799594581127167  0.8076265454292297  1.0000
