data_image388
_chemical_formula_structural       CaTi2OTiSiTiSiCaO
_chemical_formula_sum              "Ca2 Ti4 O2 Si2"
_cell_length_a       4.137521424134154
_cell_length_b       4.13982187462343
_cell_length_c       9.931002616882324
_cell_angle_alpha    101.97428682728011
_cell_angle_beta     90.01579390386162
_cell_angle_gamma    90.05179583126136

_space_group_name_H-M_alt    "P 1"
_space_group_IT_number       1

loop_
  _space_group_symop_operation_xyz
  'x, y, z'

loop_
  _atom_site_type_symbol
  _atom_site_label
  _atom_site_symmetry_multiplicity
  _atom_site_fract_x
  _atom_site_fract_y
  _atom_site_fract_z
  _atom_site_occupancy
  Ca  Ca1       1.0  0.5210573077201843  0.9276244044303895  0.2511288523674011  1.0000
  Ti  Ti1       1.0  0.5209754109382629  0.6871465444564819  0.7685678005218506  1.0000
  Ti  Ti2       1.0  0.020670201629400253  0.18427781760692596  0.7645126581192017  1.0000
  O   O1        1.0  0.5206877589225769  0.7960873246192932  0.9886139035224915  1.0000
  Ti  Ti3       1.0  0.5208341479301453  0.29699549078941345  0.9883385896682739  1.0000
  Si  Si1       1.0  0.5206215977668762  0.09643929451704027  0.5891188383102417  1.0000
  Ti  Ti4       1.0  0.021001480519771576  0.7937423586845399  0.9835798144340515  1.0000
  Si  Si2       1.0  0.021273721009492874  0.3836306929588318  0.16327409446239471  1.0000
  Ca  Ca2       1.0  0.020823340862989426  0.5529261827468872  0.5014427900314331  1.0000
  O   O2        1.0  0.020979944616556168  0.6847414970397949  0.7640639543533325  1.0000
