data_image406
_chemical_formula_structural       SiCaTiO5CaO
_chemical_formula_sum              "Si1 Ca2 Ti1 O6"
_cell_length_a       5.285953488709511
_cell_length_b       5.28082593690818
_cell_length_c       5.284938335418701
_cell_angle_alpha    60.18087747442597
_cell_angle_beta     59.982798132581095
_cell_angle_gamma    59.94804469735702

_space_group_name_H-M_alt    "P 1"
_space_group_IT_number       1

loop_
  _space_group_symop_operation_xyz
  'x, y, z'

loop_
  _atom_site_type_symbol
  _atom_site_label
  _atom_site_symmetry_multiplicity
  _atom_site_fract_x
  _atom_site_fract_y
  _atom_site_fract_z
  _atom_site_occupancy
  Si  Si1       1.0  0.378478467464447  0.7419389486312866  0.9871596693992614  1.0000
  Ca  Ca1       1.0  0.12721772491931915  0.4891058206558228  0.741954505443573  1.0000
  Ti  Ti1       1.0  0.8776687979698181  0.24209663271903992  0.48738604784011835  1.0000
  O   O1        1.0  0.6455488801002502  0.47564470767974854  0.198276549577713  1.0000
  O   O2        1.0  0.16563105583190912  0.47582310438156133  0.1990925669670105  1.0000
  O   O3        1.0  0.13871453702449804  0.9270547032356261  0.2813422977924347  1.0000
  O   O4        1.0  0.5902402997016907  0.007784348912537099  0.7756155729293823  1.0000
  O   O5        1.0  0.6174933314323425  0.5568791627883911  0.6933929920196533  1.0000
  Ca  Ca2       1.0  0.6288838386535643  0.9947955608367921  0.23251837491989136  1.0000
  O   O6        1.0  0.11041378229856491  0.007795349229127169  0.776367664337158  1.0000
