data_image73
_chemical_formula_structural       OCaOCaOTiSiO3
_chemical_formula_sum              "O6 Ca2 Ti1 Si1"
_cell_length_a       5.193549470473402
_cell_length_b       5.194150878117325
_cell_length_c       5.831672191619873
_cell_angle_alpha    63.55483400467028
_cell_angle_beta     63.417777378890754
_cell_angle_gamma    59.82887366236034

_space_group_name_H-M_alt    "P 1"
_space_group_IT_number       1

loop_
  _space_group_symop_operation_xyz
  'x, y, z'

loop_
  _atom_site_type_symbol
  _atom_site_label
  _atom_site_symmetry_multiplicity
  _atom_site_fract_x
  _atom_site_fract_y
  _atom_site_fract_z
  _atom_site_occupancy
  O   O1        1.0  0.9223909974098206  0.698373556137085  0.9549887180328369  1.0000
  Ca  Ca1       1.0  0.14288285374641416  0.3093104362487793  0.32357311248779297  1.0000
  O   O2        1.0  0.5311749577522278  0.5099616050720215  0.9554762244224548  1.0000
  Ca  Ca2       1.0  0.8746618628501892  0.041380733251571655  0.12729121744632713  1.0000
  O   O3        1.0  0.3426586389541626  0.08872151374816895  0.9552730917930603  1.0000
  Ti  Ti1       1.0  0.35065898299217224  0.517471969127655  0.7001046538352966  1.0000
  Si  Si1       1.0  0.6610472202301024  0.8272953629493713  0.7679336071014404  1.0000
  O   O4        1.0  0.47525766491889954  0.8689420819282532  0.5340294241905212  1.0000
  O   O5        1.0  0.7018616199493408  0.20700569450855255  0.5347950458526611  1.0000
  O   O6        1.0  0.04030285403132439  0.6419441103935242  0.5340365767478943  1.0000
