data_image326
_chemical_formula_structural       OTi2SiCaO6
_chemical_formula_sum              "O7 Ti2 Si1 Ca1"
_cell_length_a       4.938117652528742
_cell_length_b       5.4940302658428655
_cell_length_c       5.381687164306641
_cell_angle_alpha    104.94755724009481
_cell_angle_beta     95.14305261162842
_cell_angle_gamma    97.68666972426664

_space_group_name_H-M_alt    "P 1"
_space_group_IT_number       1

loop_
  _space_group_symop_operation_xyz
  'x, y, z'

loop_
  _atom_site_type_symbol
  _atom_site_label
  _atom_site_symmetry_multiplicity
  _atom_site_fract_x
  _atom_site_fract_y
  _atom_site_fract_z
  _atom_site_occupancy
  O   O1        1.0  0.8443890810012817  0.4327001571655274  0.39258506894111633  1.0000
  Ti  Ti1       1.0  0.23668260872364047  0.7842832803726196  0.014009986072778743  1.0000
  Ti  Ti2       1.0  0.6759194135665894  0.7274213433265687  0.583505392074585  1.0000
  Si  Si1       1.0  0.0671040266752243  0.25656616687774664  0.4780057668685913  1.0000
  Ca  Ca1       1.0  0.6063816547393799  0.32325500249862676  0.9883601069450378  1.0000
  O   O2        1.0  0.43440213799476624  0.6697055101394653  0.2582342028617859  1.0000
  O   O3        1.0  0.8765118718147278  0.6541873812675476  0.8870736956596375  1.0000
  O   O4        1.0  0.3189148008823395  0.4326211214065552  0.6913332343101501  1.0000
  O   O5        1.0  0.45458453893661505  0.9112038612365723  0.8104828000068665  1.0000
  O   O6        1.0  0.8935800790786743  0.03541380167007446  0.5890477895736694  1.0000
  O   O7        1.0  0.19567957520484924  0.11349812895059586  0.2171836644411087  1.0000
