data_image222
_chemical_formula_structural       CaO2SiO2TiO2SiO2
_chemical_formula_sum              "Ca1 O8 Si2 Ti1"
_cell_length_a       5.640927858595213
_cell_length_b       5.6445682333637395
_cell_length_c       5.656799793243408
_cell_angle_alpha    106.56975349436863
_cell_angle_beta     106.57823641509593
_cell_angle_gamma    115.267092784563

_space_group_name_H-M_alt    "P 1"
_space_group_IT_number       1

loop_
  _space_group_symop_operation_xyz
  'x, y, z'

loop_
  _atom_site_type_symbol
  _atom_site_label
  _atom_site_symmetry_multiplicity
  _atom_site_fract_x
  _atom_site_fract_y
  _atom_site_fract_z
  _atom_site_occupancy
  Ca  Ca1       1.0  0.8922533988952637  0.601298987865448  0.1269955188035965  1.0000
  O   O1        1.0  0.6293123960494995  0.6645639538764954  0.8004123568534851  1.0000
  O   O2        1.0  0.7546941637992859  0.2641294002532959  0.3275121748447418  1.0000
  Si  Si1       1.0  0.3921482264995575  0.10128127038478851  0.12712819874286652  1.0000
  O   O3        1.0  0.23085308074951172  0.7396643757820129  0.9292176961898803  1.0000
  O   O4        1.0  0.3559603989124298  0.2643985152244568  0.9283398985862731  1.0000
  Ti  Ti1       1.0  0.14229024946689606  0.3502923250198364  0.6276126503944397  1.0000
  O   O5        1.0  0.8290274739265442  0.21195341646671295  0.8005231022834778  1.0000
  O   O6        1.0  0.8290194272994995  0.8645003437995911  0.4542983472347259  1.0000
  Si  Si2       1.0  0.6425464153289795  0.8517270684242249  0.627403974533081  1.0000
  O   O7        1.0  0.22941391170024872  0.1381685733795166  0.32687512040138245  1.0000
  O   O8        1.0  0.2813098728656768  0.664893865585327  0.45446819067001337  1.0000
