data_image559
_chemical_formula_structural       CaSiTi2O
_chemical_formula_sum              "Ca1 Si1 Ti2 O1"
_cell_length_a       4.10400163188502
_cell_length_b       4.104231120715717
_cell_length_c       4.636317253112793
_cell_angle_alpha    89.98040668970165
_cell_angle_beta     89.98674510802162
_cell_angle_gamma    89.9705848773409

_space_group_name_H-M_alt    "P 1"
_space_group_IT_number       1

loop_
  _space_group_symop_operation_xyz
  'x, y, z'

loop_
  _atom_site_type_symbol
  _atom_site_label
  _atom_site_symmetry_multiplicity
  _atom_site_fract_x
  _atom_site_fract_y
  _atom_site_fract_z
  _atom_site_occupancy
  Ca  Ca1       1.0  0.2744578719139099  0.10346641391515733  0.9191475510597229  1.0000
  Si  Si1       1.0  0.7745707035064697  0.6038005352020265  0.9193258881568909  1.0000
  Ti  Ti1       1.0  0.7747037410736084  0.10384121537208557  0.4191381335258484  1.0000
  Ti  Ti2       1.0  0.27455636858940125  0.6040211915969849  0.4191792607307434  1.0000
  O   O1        1.0  0.2745613753795624  0.1032009944319725  0.4190244674682617  1.0000
