data_image115
_chemical_formula_structural       TiCaSiO2SiTiO5
_chemical_formula_sum              "Ti2 Ca1 Si2 O7"
_cell_length_a       3.3170019629010987
_cell_length_b       5.25550023895747
_cell_length_c       8.111077308654785
_cell_angle_alpha    108.07469743770959
_cell_angle_beta     101.83705507442431
_cell_angle_gamma    89.99744811947471

_space_group_name_H-M_alt    "P 1"
_space_group_IT_number       1

loop_
  _space_group_symop_operation_xyz
  'x, y, z'

loop_
  _atom_site_type_symbol
  _atom_site_label
  _atom_site_symmetry_multiplicity
  _atom_site_fract_x
  _atom_site_fract_y
  _atom_site_fract_z
  _atom_site_occupancy
  Ti  Ti1       1.0  0.7288535237312317  0.2247037440538406  0.6248193979263306  1.0000
  Ca  Ca1       1.0  0.3556235134601593  0.8057565093040466  0.878803014755249  1.0000
  Si  Si1       1.0  0.06839725375175476  0.971265435218811  0.3057463467121124  1.0000
  O   O1        1.0  0.16484352946281433  0.3225450813770294  0.49295729398727417  1.0000
  O   O2        1.0  0.8486072421073914  0.48257449269294733  0.8647264838218689  1.0000
  Si  Si2       1.0  0.9365094900131224  0.3474807739257812  0.04020802676677704  1.0000
  Ti  Ti2       1.0  0.6456118226051331  0.5921915173530578  0.45735302567481995  1.0000
  O   O3        1.0  0.7578511238098145  0.8795628547668457  0.6829096674919128  1.0000
  O   O4        1.0  0.4166452884674072  0.26860788464546204  0.998924195766449  1.0000
  O   O5        1.0  0.03658251464366913  0.6006478667259216  0.24029585719108582  1.0000
  O   O6        1.0  0.9741416573524475  0.03115107491612434  0.11453557759523393  1.0000
  O   O7        1.0  0.5981706380844116  0.9419848918914794  0.3617308437824249  1.0000
