data_image290
_chemical_formula_structural       CaOCaTiO4SiO2Ti
_chemical_formula_sum              "Ca2 O7 Ti2 Si1"
_cell_length_a       3.6563264149029937
_cell_length_b       3.6588392531504055
_cell_length_c       11.168444633483887
_cell_angle_alpha    99.48197816178073
_cell_angle_beta     99.43114152709305
_cell_angle_gamma    90.03756167823366

_space_group_name_H-M_alt    "P 1"
_space_group_IT_number       1

loop_
  _space_group_symop_operation_xyz
  'x, y, z'

loop_
  _atom_site_type_symbol
  _atom_site_label
  _atom_site_symmetry_multiplicity
  _atom_site_fract_x
  _atom_site_fract_y
  _atom_site_fract_z
  _atom_site_occupancy
  Ca  Ca1       1.0  0.1083194687962532  0.719861090183258  0.4815973937511444  1.0000
  O   O1        1.0  0.40674182772636414  0.5173002481460571  0.07888498157262802  1.0000
  Ca  Ca2       1.0  0.3286937177181244  0.9413011074066161  0.9231674075126648  1.0000
  Ti  Ti1       1.0  0.7327895760536194  0.3451715111732483  0.7320905327796936  1.0000
  O   O2        1.0  0.04190169274806976  0.1532328873872757  0.3484998643398285  1.0000
  O   O3        1.0  0.7587364315986633  0.8708533048629761  0.7839270234107971  1.0000
  O   O4        1.0  0.9060043692588806  0.018058480694890022  0.07957404106855392  1.0000
  O   O5        1.0  0.5425512790679932  0.6537364721298218  0.34957367181777954  1.0000
  Si  Si1       1.0  0.9259225130081177  0.5381896495819092  0.1187891811132431  1.0000
  O   O6        1.0  0.6515816450119019  0.2635941207408905  0.56805020570755  1.0000
  O   O7        1.0  0.2586376965045929  0.37134918570518494  0.7841775417327881  1.0000
  Ti  Ti2       1.0  0.510211169719696  0.12137658894062042  0.288023442029953  1.0000
