data_image162
_chemical_formula_structural       O3CaSiOSiO3Ti
_chemical_formula_sum              "O7 Ca1 Si2 Ti1"
_cell_length_a       5.523546733906551
_cell_length_b       5.6059122877580485
_cell_length_c       6.07924747467041
_cell_angle_alpha    95.21070610345635
_cell_angle_beta     98.08189958486153
_cell_angle_gamma    114.12220007307721

_space_group_name_H-M_alt    "P 1"
_space_group_IT_number       1

loop_
  _space_group_symop_operation_xyz
  'x, y, z'

loop_
  _atom_site_type_symbol
  _atom_site_label
  _atom_site_symmetry_multiplicity
  _atom_site_fract_x
  _atom_site_fract_y
  _atom_site_fract_z
  _atom_site_occupancy
  O   O1        1.0  0.8806335926055908  0.02366167493164539  0.9874572157859801  1.0000
  O   O2        1.0  0.1585757881402969  0.38744536042213434  0.355610191822052  1.0000
  O   O3        1.0  0.81132972240448  0.4714096784591674  0.060951098799705485  1.0000
  Ca  Ca1       1.0  0.012737978249788283  0.04091865569353103  0.6103031635284424  1.0000
  Si  Si1       1.0  0.014622261747717856  0.33281567692756653  0.08668366074562073  1.0000
  O   O4        1.0  0.2892109453678131  0.8824431896209717  0.5686438083648682  1.0000
  Si  Si2       1.0  0.4090761542320251  0.6888793110847472  0.4791973531246185  1.0000
  O   O5        1.0  0.6089539527893066  0.7949084043502808  0.2946990132331848  1.0000
  O   O6        1.0  0.6074951887130737  0.6376776695251465  0.6742238402366638  1.0000
  O   O7        1.0  0.24749423563480374  0.44454759359359736  0.9323630928993224  1.0000
  Ti  Ti1       1.0  0.6294548511505127  0.6697618961334229  0.9923201799392699  1.0000
