data_image240
_chemical_formula_structural       SiTiSiO2CaO6
_chemical_formula_sum              "Si2 Ti1 O8 Ca1"
_cell_length_a       5.629569049574094
_cell_length_b       5.627139240824336
_cell_length_c       5.633075714111328
_cell_angle_alpha    106.58970524385211
_cell_angle_beta     106.57424005233354
_cell_angle_gamma    115.39949966005778

_space_group_name_H-M_alt    "P 1"
_space_group_IT_number       1

loop_
  _space_group_symop_operation_xyz
  'x, y, z'

loop_
  _atom_site_type_symbol
  _atom_site_label
  _atom_site_symmetry_multiplicity
  _atom_site_fract_x
  _atom_site_fract_y
  _atom_site_fract_z
  _atom_site_occupancy
  Si  Si1       1.0  0.356862336397171  0.5009033679962158  0.41082629561424255  1.0000
  Ti  Ti1       1.0  0.6065736413002014  0.25124311447143555  0.9112653732299804  1.0000
  Si  Si2       1.0  0.10836659371852873  0.751655101776123  0.9105473160743712  1.0000
  O   O1        1.0  0.519753098487854  0.4645192921161651  0.21149605512619016  1.0000
  O   O2        1.0  0.9208948016166687  0.7383645176887512  0.08348580449819572  1.0000
  Ca  Ca1       1.0  0.8568592071533203  0.0012272596359252928  0.410760760307312  1.0000
  O   O3        1.0  0.9212973713874817  0.3910735547542572  0.7388983964920044  1.0000
  O   O4        1.0  0.9952316284179688  0.3389705419540405  0.2121091485023499  1.0000
  O   O5        1.0  0.46846994757652277  0.938918113708496  0.08359652012586594  1.0000
  O   O6        1.0  0.12119738757610325  0.9383201003074646  0.7373864054679871  1.0000
  O   O7        1.0  0.3944249749183655  0.33820992708206177  0.6104555130004883  1.0000
  O   O8        1.0  0.5195660591125488  0.8629390001296997  0.6099246740341187  1.0000
