data_image247
_chemical_formula_structural       Ca2O4Si2O2
_chemical_formula_sum              "Ca2 O6 Si2"
_cell_length_a       5.118651298368249
_cell_length_b       5.1189568831423955
_cell_length_c       5.119453430175781
_cell_angle_alpha    60.10236024456016
_cell_angle_beta     60.053872767318204
_cell_angle_gamma    59.9475682997357

_space_group_name_H-M_alt    "P 1"
_space_group_IT_number       1

loop_
  _space_group_symop_operation_xyz
  'x, y, z'

loop_
  _atom_site_type_symbol
  _atom_site_label
  _atom_site_symmetry_multiplicity
  _atom_site_fract_x
  _atom_site_fract_y
  _atom_site_fract_z
  _atom_site_occupancy
  Ca  Ca1       1.0  0.3256368637084961  0.05905250459909439  0.2869281768798828  1.0000
  Ca  Ca2       1.0  0.8259462714195253  0.5593827366828917  0.7867987155914307  1.0000
  O   O1        1.0  0.29774045944213867  0.08695255219936371  0.7906286716461182  1.0000
  O   O2        1.0  0.8543399572372435  0.5311213135719299  0.28373655676841747  1.0000
  O   O3        1.0  0.3262640535831452  0.5901890397071837  0.7554178237915039  1.0000
  O   O4        1.0  0.35398182272911066  0.556282103061676  0.25908833742141735  1.0000
  Si  Si1       1.0  0.07567542046308517  0.8091157078742981  0.037025682628154755  1.0000
  Si  Si2       1.0  0.5758473873138428  0.30861300230026245  0.5370526313781738  1.0000
  O   O5        1.0  0.8252224326133728  0.027615584433078762  0.31922399997711176  1.0000
  O   O6        1.0  0.7976546287536621  0.061852648854255676  0.8154091835021973  1.0000
