data_image170
_chemical_formula_structural       CaSiTiSiO4CaO5
_chemical_formula_sum              "Ca2 Si2 Ti1 O9"
_cell_length_a       6.2177469306924875
_cell_length_b       6.246230125324252
_cell_length_c       6.365062236785889
_cell_angle_alpha    104.12464231982429
_cell_angle_beta     98.4706114895316
_cell_angle_gamma    96.00869087424395

_space_group_name_H-M_alt    "P 1"
_space_group_IT_number       1

loop_
  _space_group_symop_operation_xyz
  'x, y, z'

loop_
  _atom_site_type_symbol
  _atom_site_label
  _atom_site_symmetry_multiplicity
  _atom_site_fract_x
  _atom_site_fract_y
  _atom_site_fract_z
  _atom_site_occupancy
  Ca  Ca1       1.0  0.4499569237232209  0.8939054012298584  0.012018728069961071  1.0000
  Si  Si1       1.0  0.8516948819160463  0.21048323810100558  0.5240024328231812  1.0000
  Ti  Ti1       1.0  0.024541016668081294  0.8222872614860536  0.24091853201389316  1.0000
  Si  Si2       1.0  0.6282573938369751  0.44432479143142706  0.8857519030570985  1.0000
  O   O1        1.0  0.4701510965824128  0.5455154776573181  0.7147144079208374  1.0000
  O   O2        1.0  8.189282380045295e-05  0.39306473731994634  0.44368520379066473  1.0000
  O   O3        1.0  0.4824476838111878  0.2675103545188904  0.9834904670715333  1.0000
  O   O4        1.0  0.7398789525032043  0.6666969656944276  0.08880377560853962  1.0000
  Ca  Ca2       1.0  0.34028759598731995  0.3814450800418854  0.33138594031333923  1.0000
  O   O5        1.0  0.25419813394546514  0.6758511066436769  0.20815594494342804  1.0000
  O   O6        1.0  0.6151109337806702  0.13889694213867188  0.3611736595630646  1.0000
  O   O7        1.0  0.8198822736740112  0.31994372606277466  0.7772677540779114  1.0000
  O   O8        1.0  0.12290822714567186  0.03596165403723717  0.12183845788240434  1.0000
  O   O9        1.0  0.9844005703926088  0.9946901798248292  0.5135579109191895  1.0000
