data_image84
_chemical_formula_structural       OCa2TiSiO4SiTiO5
_chemical_formula_sum              "O10 Ca2 Ti2 Si2"
_cell_length_a       5.506749167039015
_cell_length_b       5.502949072273612
_cell_length_c       7.121798992156982
_cell_angle_alpha    104.11293562738378
_cell_angle_beta     104.1428725227493
_cell_angle_gamma    105.7035898423228

_space_group_name_H-M_alt    "P 1"
_space_group_IT_number       1

loop_
  _space_group_symop_operation_xyz
  'x, y, z'

loop_
  _atom_site_type_symbol
  _atom_site_label
  _atom_site_symmetry_multiplicity
  _atom_site_fract_x
  _atom_site_fract_y
  _atom_site_fract_z
  _atom_site_occupancy
  O   O1        1.0  0.6036105155944824  0.9409357309341431  0.4287688136100769  1.0000
  Ca  Ca1       1.0  0.38594019412994385  0.9571138620376587  0.06144706904888153  1.0000
  Ca  Ca2       1.0  0.04470761865377426  0.29799920320510864  0.5615295767784119  1.0000
  Ti  Ti1       1.0  0.7155708074569702  0.627932608127594  0.8114121556282043  1.0000
  Si  Si1       1.0  0.39641219377517706  0.9465828537940978  0.561601459980011  1.0000
  O   O2        1.0  0.02846118435263634  0.5155882239341736  0.9288721084594727  1.0000
  O   O3        1.0  0.7851501107215881  0.5578566193580627  0.5613486766815186  1.0000
  O   O4        1.0  0.4019457697868348  0.7392154932022095  0.6942203044891357  1.0000
  O   O5        1.0  0.6459369659423828  0.697346568107605  0.061662811785936356  1.0000
  Si  Si2       1.0  0.034169651567935944  0.3091406226158142  0.0614972673356533  1.0000
  Ti  Ti2       1.0  0.7154947519302368  0.6276809573173523  0.3115745484828949  1.0000
  O   O6        1.0  0.3363093435764313  0.3780662715435028  0.2198563814163208  1.0000
  O   O7        1.0  0.46585711836814886  0.2488546222448349  0.7203537821769714  1.0000
  O   O8        1.0  0.8271703124046327  0.31460219621658325  0.19416803121566772  1.0000
  O   O9        1.0  0.964393973350525  0.006722010672092438  0.9031994342803955  1.0000
  O   O10       1.0  0.09466667473316188  0.8771167993545531  0.40253981947898865  1.0000
