data_image262
_chemical_formula_structural       SiCaOTiOCaO6TiOSiO
_chemical_formula_sum              "Si2 Ca2 O10 Ti2"
_cell_length_a       5.5020684004558005
_cell_length_b       5.502240555796201
_cell_length_c       7.127931118011475
_cell_angle_alpha    104.16545957018862
_cell_angle_beta     104.19533568749684
_cell_angle_gamma    105.81710104526853

_space_group_name_H-M_alt    "P 1"
_space_group_IT_number       1

loop_
  _space_group_symop_operation_xyz
  'x, y, z'

loop_
  _atom_site_type_symbol
  _atom_site_label
  _atom_site_symmetry_multiplicity
  _atom_site_fract_x
  _atom_site_fract_y
  _atom_site_fract_z
  _atom_site_occupancy
  Si  Si1       1.0  0.0939774215221405  0.9297460913658142  0.10113824903964999  1.0000
  Ca  Ca1       1.0  0.08269257098436356  0.9412186145782471  0.6011048555374146  1.0000
  O   O1        1.0  0.3017309904098511  0.924864947795868  0.9684742689132689  1.0000
  Ti  Ti1       1.0  0.412797749042511  0.6112866401672363  0.8509917259216307  1.0000
  O   O2        1.0  0.16330015659332275  0.23176926374435425  0.2599153220653534  1.0000
  Ca  Ca2       1.0  0.7420691847801208  0.2813728451728821  0.1010848581790924  1.0000
  O   O3        1.0  0.5230911970138551  0.2979383766651154  0.7330073714256286  1.0000
  O   O4        1.0  0.6616840362548828  0.9906942248344421  0.44177508354187006  1.0000
  O   O5        1.0  0.7260808944702148  0.5006174445152283  0.4685326218605041  1.0000
  O   O6        1.0  0.4824325144290924  0.5410775542259216  0.10046881437301639  1.0000
  O   O7        1.0  0.7919241189956665  0.8605064153671265  0.9416217803955077  1.0000
  O   O8        1.0  0.34220653772354126  0.6812458634376526  0.6007747054100037  1.0000
  Ti  Ti2       1.0  0.41264936327934265  0.6114190816879272  0.35087272524833674  1.0000
  O   O9        1.0  0.0989716425538063  0.7218583226203918  0.23291051387786862  1.0000
  Si  Si2       1.0  0.730907142162323  0.292918860912323  0.6009011268615723  1.0000
  O   O10       1.0  0.032854251563549035  0.3622845709323883  0.7599287629127501  1.0000
