data_image385
_chemical_formula_structural       CaSiO2TiO4SiO
_chemical_formula_sum              "Ca1 Si2 O7 Ti1"
_cell_length_a       6.538733370354958
_cell_length_b       5.4806830764515055
_cell_length_c       5.364989280700684
_cell_angle_alpha    96.01743375564777
_cell_angle_beta     110.5986844505884
_cell_angle_gamma    124.1079974413208

_space_group_name_H-M_alt    "P 1"
_space_group_IT_number       1

loop_
  _space_group_symop_operation_xyz
  'x, y, z'

loop_
  _atom_site_type_symbol
  _atom_site_label
  _atom_site_symmetry_multiplicity
  _atom_site_fract_x
  _atom_site_fract_y
  _atom_site_fract_z
  _atom_site_occupancy
  Ca  Ca1       1.0  0.6881722807884216  0.5167969465255737  0.7797242403030396  1.0000
  Si  Si1       1.0  0.05019028484821319  0.06238942965865135  0.5582292675971985  1.0000
  O   O1        1.0  0.259899914264679  0.9819127917289735  0.7176129221916199  1.0000
  O   O2        1.0  0.7574913501739501  0.2438573986291885  0.105583444237709  1.0000
  Ti  Ti1       1.0  0.10146155953407286  0.31832435727119446  0.16144457459449768  1.0000
  O   O3        1.0  0.4105857908725738  0.2751488983631134  0.24084405601024628  1.0000
  O   O4        1.0  0.2588992416858673  0.4301913380622864  0.5784703493118286  1.0000
  O   O5        1.0  0.8947830200195311  0.028636515140533447  0.7442318201065063  1.0000
  O   O6        1.0  0.876444637775421  0.8747961521148682  0.21296438574790955  1.0000
  Si  Si2       1.0  0.4315287768840789  0.041526470333337784  0.057286974042653996  1.0000
  O   O7        1.0  0.2659520208835602  0.6971409916877747  0.10002215951681137  1.0000
