data_image503
_chemical_formula_structural       OSiOCaSi2O4
_chemical_formula_sum              "O6 Si3 Ca1"
_cell_length_a       5.175205416135109
_cell_length_b       5.267111735064388
_cell_length_c       7.4132537841796875
_cell_angle_alpha    67.9956722261121
_cell_angle_beta     88.59361873823343
_cell_angle_gamma    60.3223243158792

_space_group_name_H-M_alt    "P 1"
_space_group_IT_number       1

loop_
  _space_group_symop_operation_xyz
  'x, y, z'

loop_
  _atom_site_type_symbol
  _atom_site_label
  _atom_site_symmetry_multiplicity
  _atom_site_fract_x
  _atom_site_fract_y
  _atom_site_fract_z
  _atom_site_occupancy
  O   O1        1.0  0.6520919799804688  0.09678491950035095  0.12466263771057129  1.0000
  Si  Si1       1.0  0.37019762396812433  0.5571646690368652  0.5060718655586243  1.0000
  O   O2        1.0  0.5195246934890747  0.3593696355819702  0.7422744035720825  1.0000
  Ca  Ca1       1.0  0.8993734121322632  0.3107885420322418  0.9241592884063721  1.0000
  Si  Si2       1.0  0.520861804485321  0.04168413206934929  0.9366369247436523  1.0000
  Si  Si3       1.0  0.6549191474914551  0.9908663034439086  0.3601635992527008  1.0000
  O   O3        1.0  0.5263658165931702  0.31351009011268616  0.39761045575141907  1.0000
  O   O4        1.0  0.7925877571105957  0.7312873005867004  0.933098554611206  1.0000
  O   O5        1.0  0.43666529655456543  0.8443091511726379  0.4232974350452423  1.0000
  O   O6        1.0  0.0032947373110800908  0.7092037200927734  0.48272794485092163  1.0000
