data_image575
_chemical_formula_structural       OCaSiTiO3SiO3
_chemical_formula_sum              "O7 Ca1 Si2 Ti1"
_cell_length_a       4.649939628819876
_cell_length_b       5.427706055813827
_cell_length_c       5.425726413726807
_cell_angle_alpha    102.64208229255011
_cell_angle_beta     96.949098264623
_cell_angle_gamma    97.05599744350481

_space_group_name_H-M_alt    "P 1"
_space_group_IT_number       1

loop_
  _space_group_symop_operation_xyz
  'x, y, z'

loop_
  _atom_site_type_symbol
  _atom_site_label
  _atom_site_symmetry_multiplicity
  _atom_site_fract_x
  _atom_site_fract_y
  _atom_site_fract_z
  _atom_site_occupancy
  O   O1        1.0  0.8504713773727417  0.5245514512062073  0.26444530487060547  1.0000
  Ca  Ca1       1.0  0.0501561239361763  0.6543413400650024  0.6838369965553284  1.0000
  Si  Si1       1.0  0.4681464731693268  0.14863498508930206  0.6157853603363037  1.0000
  Ti  Ti1       1.0  0.04820050299167633  0.26326802372932434  0.0754537582397461  1.0000
  O   O2        1.0  0.24791216850280762  0.07405900955200195  0.8153867721557617  1.0000
  O   O3        1.0  0.28720808029174805  0.2764262855052948  0.4041953682899475  1.0000
  O   O4        1.0  0.772308886051178  0.32097065448760986  0.7723149061203003  1.0000
  Si  Si2       1.0  0.6308873295783997  0.7240729928016663  0.1903664469718933  1.0000
  O   O5        1.0  0.5487258434295654  0.8663962483406067  0.471925288438797  1.0000
  O   O6        1.0  0.8103474974632263  0.9354062676429749  0.06376409530639648  1.0000
  O   O7        1.0  0.3263598680496216  0.566748857498169  0.01801155135035515  1.0000
