data_image2
_chemical_formula_structural       Ca4Ti2SiO3SiO9
_chemical_formula_sum              "Ca4 Ti2 Si2 O12"
_cell_length_a       5.930529199185281
_cell_length_b       7.209181633048872
_cell_length_c       7.171164512634277
_cell_angle_alpha    83.92385254403985
_cell_angle_beta     75.44180105911593
_cell_angle_gamma    75.10986714023771

_space_group_name_H-M_alt    "P 1"
_space_group_IT_number       1

loop_
  _space_group_symop_operation_xyz
  'x, y, z'

loop_
  _atom_site_type_symbol
  _atom_site_label
  _atom_site_symmetry_multiplicity
  _atom_site_fract_x
  _atom_site_fract_y
  _atom_site_fract_z
  _atom_site_occupancy
  Ca  Ca1       1.0  0.9223034381866455  0.46516445279121404  0.5633907914161682  1.0000
  Ca  Ca2       1.0  0.4278958737850189  0.2685181200504303  0.7549783587455751  1.0000
  Ca  Ca3       1.0  0.41041499376296997  0.6620832085609437  0.37743479013443  1.0000
  Ca  Ca4       1.0  0.9054752588272095  0.8582133650779724  0.18531608581542972  1.0000
  Ti  Ti1       1.0  0.3912765681743622  0.768934726715088  0.8447692990303041  1.0000
  Ti  Ti2       1.0  0.9419640898704528  0.35829943418502813  0.09549709409475331  1.0000
  Si  Si1       1.0  0.4414522051811218  0.18185691535472873  0.27043792605400085  1.0000
  O   O1        1.0  0.8337917923927307  0.16927757859230042  0.5959097743034363  1.0000
  O   O2        1.0  0.017161939293146133  0.42996564507484436  0.8538702130317689  1.0000
  O   O3        1.0  0.25157642364501953  0.21833041310310364  0.12318141758441926  1.0000
  Si  Si2       1.0  0.8915682435035706  0.9452128410339355  0.6698243618011476  1.0000
  O   O4        1.0  0.4989564418792724  0.9581019878387451  0.3440596759319306  1.0000
  O   O5        1.0  0.31587800383567805  0.6969035267829896  0.08654999732971193  1.0000
  O   O6        1.0  0.9967218041419982  0.7899607419967651  0.49867027997970587  1.0000
  O   O7        1.0  0.8250195384025574  0.5567977428436279  0.25276744365692144  1.0000
  O   O8        1.0  0.7089585065841675  0.20887601375579837  0.13660630583763128  1.0000
  O   O9        1.0  0.6236899495124817  0.9183244109153749  0.803666114807129  1.0000
  O   O10       1.0  0.5079118609428406  0.5701338052749634  0.6872482299804689  1.0000
  O   O11       1.0  0.33607569336891174  0.3374822735786438  0.441912055015564  1.0000
  O   O12       1.0  0.08205967396497726  0.9087480306625366  0.8169545531272889  1.0000
