data_image128
_chemical_formula_structural       CaO2Ti2CaSiO2Si2O3
_chemical_formula_sum              "Ca2 O7 Ti2 Si3"
_cell_length_a       3.2569492036682615
_cell_length_b       3.2719785956535583
_cell_length_c       18.09157371520996
_cell_angle_alpha    95.09735931025025
_cell_angle_beta     90.08511348371638
_cell_angle_gamma    90.00785039195274

_space_group_name_H-M_alt    "P 1"
_space_group_IT_number       1

loop_
  _space_group_symop_operation_xyz
  'x, y, z'

loop_
  _atom_site_type_symbol
  _atom_site_label
  _atom_site_symmetry_multiplicity
  _atom_site_fract_x
  _atom_site_fract_y
  _atom_site_fract_z
  _atom_site_occupancy
  Ca  Ca1       1.0  0.46380475163459783  0.7332695722579956  0.6647088527679443  1.0000
  O   O1        1.0  0.4594078958034516  0.5623477697372437  0.3242616057395935  1.0000
  O   O2        1.0  0.9628777503967286  0.21140088140964508  0.6144256591796875  1.0000
  Ti  Ti1       1.0  0.4624424576759339  0.35987809300422663  0.9284096360206604  1.0000
  Ti  Ti2       1.0  0.9617478847503663  0.1546669900417328  0.511640727519989  1.0000
  Ca  Ca2       1.0  0.4578589797019959  0.012287653982639313  0.2268947809934616  1.0000
  Si  Si1       1.0  0.9595861434936525  0.5784870982170104  0.35492086410522455  1.0000
  O   O3        1.0  0.9598530530929567  0.39878129959106445  0.9970893859863281  1.0000
  O   O4        1.0  0.9633750915527345  0.7801709175109863  0.7606443166732788  1.0000
  Si  Si2       1.0  0.9528761506080629  0.4421341121196747  0.08404585719108582  1.0000
  Si  Si3       1.0  0.964095175266266  0.3033366203308105  0.8100544214248657  1.0000
  O   O5        1.0  0.9582282304763795  0.48931604623794556  0.1813013106584549  1.0000
  O   O6        1.0  0.9598982930183412  0.06572486460208891  0.3295738995075226  1.0000
  O   O7        1.0  0.9594411253929139  0.6238035559654236  0.4477733373641968  1.0000
