data_image397
_chemical_formula_structural       CaSi2OTiO7
_chemical_formula_sum              "Ca1 Si2 O8 Ti1"
_cell_length_a       5.6342001907432655
_cell_length_b       5.63639066991101
_cell_length_c       5.638511657714844
_cell_angle_alpha    106.53285710305724
_cell_angle_beta     106.56631112790747
_cell_angle_gamma    115.42382998070393

_space_group_name_H-M_alt    "P 1"
_space_group_IT_number       1

loop_
  _space_group_symop_operation_xyz
  'x, y, z'

loop_
  _atom_site_type_symbol
  _atom_site_label
  _atom_site_symmetry_multiplicity
  _atom_site_fract_x
  _atom_site_fract_y
  _atom_site_fract_z
  _atom_site_occupancy
  Ca  Ca1       1.0  0.6548235416412354  0.5057733654975891  0.6774288415908813  1.0000
  Si  Si1       1.0  0.15454255044460297  0.005487208254635334  0.6765994429588318  1.0000
  Si  Si2       1.0  0.40597954392433167  0.7571585178375244  0.17711120843887337  1.0000
  O   O1        1.0  0.5168894529342651  0.16769884526729584  0.8752864599227906  1.0000
  Ti  Ti1       1.0  0.9046876430511475  0.2543089687824249  0.17657205462455755  1.0000
  O   O2        1.0  0.5929359197616577  0.7712230682373047  0.004476516507566054  1.0000
  O   O3        1.0  0.39180147647857666  0.5694852471351624  0.3496055901050568  1.0000
  O   O4        1.0  0.9922181367874147  0.04215791076421738  0.876352369785309  1.0000
  O   O5        1.0  0.04411621391773224  0.5690060257911682  0.004783653188496848  1.0000
  O   O6        1.0  0.9929394125938417  0.6441518664360046  0.4784269928932191  1.0000
  O   O7        1.0  0.11832623183727266  0.16820846498012543  0.4776818156242371  1.0000
  O   O8        1.0  0.5926902890205383  0.11753955483436584  0.3492023050785065  1.0000
