data_image324
_chemical_formula_structural       TiOCa2SiTiO5SiO4
_chemical_formula_sum              "Ti2 O10 Ca2 Si2"
_cell_length_a       5.4994182150664805
_cell_length_b       5.501281323608956
_cell_length_c       7.111334323883057
_cell_angle_alpha    104.19624255067649
_cell_angle_beta     104.19458337933354
_cell_angle_gamma    105.89764832775776

_space_group_name_H-M_alt    "P 1"
_space_group_IT_number       1

loop_
  _space_group_symop_operation_xyz
  'x, y, z'

loop_
  _atom_site_type_symbol
  _atom_site_label
  _atom_site_symmetry_multiplicity
  _atom_site_fract_x
  _atom_site_fract_y
  _atom_site_fract_z
  _atom_site_occupancy
  Ti  Ti1       1.0  0.7397416234016418  0.48135277628898626  0.11691022664308551  1.0000
  O   O1        1.0  0.48953333497047435  0.10211473703384401  0.5253615975379944  1.0000
  Ca  Ca1       1.0  0.4108223021030426  0.8093018531799316  0.8666839599609374  1.0000
  Ca  Ca2       1.0  0.06901532411575319  0.15183135867118838  0.3668016195297241  1.0000
  Si  Si1       1.0  0.05919824913144113  0.16170607507228854  0.8665964007377623  1.0000
  Ti  Ti2       1.0  0.7396381497383118  0.4805044829845429  0.6166436672210693  1.0000
  O   O2        1.0  0.8095536828041077  0.41087251901626587  0.36634567379951477  1.0000
  O   O3        1.0  0.11799969524145128  0.730277419090271  0.20793521404266355  1.0000
  O   O4        1.0  0.4265322983264923  0.5926411747932434  0.4991930425167083  1.0000
  O   O5        1.0  0.8523921370506287  0.16786745190620425  0.9995737671852111  1.0000
  O   O6        1.0  0.36180204153060913  0.23104704916477203  0.02524746209383011  1.0000
  Si  Si2       1.0  0.42039376497268677  0.7999838590621949  0.36691808700561523  1.0000
  O   O7        1.0  0.9896668791770936  0.8590809702873231  0.7077568173408508  1.0000
  O   O8        1.0  0.6276535391807556  0.7935525178909303  0.23369188606739047  1.0000
  O   O9        1.0  0.05276680737733841  0.3684525489807129  0.7337772846221924  1.0000
  O   O10       1.0  0.6701362729072571  0.5500220060348511  0.8666129708290099  1.0000
