data_image296
_chemical_formula_structural       SiCaTi2SiCaO2
_chemical_formula_sum              "Si2 Ca2 Ti2 O2"
_cell_length_a       4.063008340079722
_cell_length_b       4.064197631434032
_cell_length_c       8.063957214355469
_cell_angle_alpha    89.9878652583553
_cell_angle_beta     90.00715371243331
_cell_angle_gamma    89.99130084399731

_space_group_name_H-M_alt    "P 1"
_space_group_IT_number       1

loop_
  _space_group_symop_operation_xyz
  'x, y, z'

loop_
  _atom_site_type_symbol
  _atom_site_label
  _atom_site_symmetry_multiplicity
  _atom_site_fract_x
  _atom_site_fract_y
  _atom_site_fract_z
  _atom_site_occupancy
  Si  Si1       1.0  0.3498701751232147  0.8715177774429321  0.7987475395202637  1.0000
  Ca  Ca1       1.0  0.8498698472976685  0.3713718056678772  0.7000896334648132  1.0000
  Ti  Ti1       1.0  0.8496541976928711  0.8713177442550659  0.04869547113776207  1.0000
  Ti  Ti2       1.0  0.34970250725746155  0.3713324964046478  0.048978812992572784  1.0000
  Si  Si2       1.0  0.8503379225730896  0.37184059619903564  0.29884904623031616  1.0000
  Ca  Ca2       1.0  0.35024315118789673  0.8715205788612366  0.3976947069168091  1.0000
  O   O1        1.0  0.8495561480522156  0.3712950050830841  0.9857275485992432  1.0000
  O   O2        1.0  0.34990841150283813  0.8713877201080322  0.1121927797794342  1.0000
