data_image359
_chemical_formula_structural       Ca2TiSiO6
_chemical_formula_sum              "Ca2 Ti1 Si1 O6"
_cell_length_a       5.268503090338399
_cell_length_b       5.2689857393885555
_cell_length_c       5.292697429656982
_cell_angle_alpha    119.87718248876844
_cell_angle_beta     119.889301031888
_cell_angle_gamma    89.99506479333326

_space_group_name_H-M_alt    "P 1"
_space_group_IT_number       1

loop_
  _space_group_symop_operation_xyz
  'x, y, z'

loop_
  _atom_site_type_symbol
  _atom_site_label
  _atom_site_symmetry_multiplicity
  _atom_site_fract_x
  _atom_site_fract_y
  _atom_site_fract_z
  _atom_site_occupancy
  Ca  Ca1       1.0  0.40736171603202814  0.7466879487037658  0.11532524973154068  1.0000
  Ca  Ca2       1.0  0.9070339202880859  0.24688827991485596  0.11472762376070023  1.0000
  Ti  Ti1       1.0  0.15711852908134455  0.997089922428131  0.6151862144470215  1.0000
  Si  Si1       1.0  0.6571745872497559  0.4969909489154815  0.6149649620056152  1.0000
  O   O1        1.0  0.41772380471229553  0.2578934133052826  0.13629034161567688  1.0000
  O   O2        1.0  0.3885065019130707  0.7061842083930969  0.6156754493713379  1.0000
  O   O3        1.0  0.8665778040885925  0.7657551169395447  0.6157557964324951  1.0000
  O   O4        1.0  0.9254827499389648  0.2871529757976532  0.6146284937858582  1.0000
  O   O5        1.0  0.44760122895240784  0.22778426110744476  0.6150323152542114  1.0000
  O   O6        1.0  0.8960687518119812  0.7353407740592957  0.09367969632148743  1.0000
