data_image151
_chemical_formula_structural       Si3CaSiTi3O3CaTiO2Si2O3
_chemical_formula_sum              "Si6 Ca2 Ti4 O8"
_cell_length_a       3.4315721976270086
_cell_length_b       4.142151630847792
_cell_length_c       22.146068572998047
_cell_angle_alpha    87.46863217691472
_cell_angle_beta     88.16574161583834
_cell_angle_gamma    89.91479589996534

_space_group_name_H-M_alt    "P 1"
_space_group_IT_number       1

loop_
  _space_group_symop_operation_xyz
  'x, y, z'

loop_
  _atom_site_type_symbol
  _atom_site_label
  _atom_site_symmetry_multiplicity
  _atom_site_fract_x
  _atom_site_fract_y
  _atom_site_fract_z
  _atom_site_occupancy
  Si  Si1       1.0  0.854781985282898  0.7894938588142395  0.018480021506547928  1.0000
  Si  Si2       1.0  0.823320209980011  0.7304943799972534  0.20120306313037872  1.0000
  Si  Si3       1.0  0.811107337474823  0.6687245965003967  0.3047468662261963  1.0000
  Ca  Ca1       1.0  0.9821702241897583  0.8882266283035278  0.44217607378959656  1.0000
  Si  Si4       1.0  0.33056655526161194  0.276805192232132  0.33000537753105164  1.0000
  Ti  Ti1       1.0  0.33971989154815674  0.2646915316581726  0.10825992375612259  1.0000
  Ti  Ti2       1.0  0.9172964692115784  0.3428201377391815  0.7336385250091553  1.0000
  Ti  Ti3       1.0  0.46856889128685  0.3882491886615753  0.5249854326248169  1.0000
  O   O1        1.0  0.47226670384407043  0.8730866312980653  0.5026624798774719  1.0000
  O   O2        1.0  0.40616872906684875  0.33631572127342224  0.7801000475883484  1.0000
  O   O3        1.0  0.8466546535491943  0.46730676293373113  0.06480594724416733  1.0000
  Ca  Ca2       1.0  0.38236528635025024  0.3135549426078797  0.8800447583198547  1.0000
  Ti  Ti4       1.0  0.42248979210853577  0.8489035367965698  0.7039253115653992  1.0000
  O   O4        1.0  0.9703248739242554  0.37929835915565496  0.4965428411960602  1.0000
  O   O5        1.0  0.8329755663871765  0.05448605120182038  0.15393409132957458  1.0000
  Si  Si5       1.0  0.8752231597900391  0.8030914068222046  0.9179661273956299  1.0000
  Si  Si6       1.0  0.43463364243507385  0.3626773953437805  0.641577422618866  1.0000
  O   O6        1.0  0.9145744442939758  0.8425396084785461  0.7423741221427917  1.0000
  O   O7        1.0  0.350044310092926  0.9395477175712587  0.04109670966863632  1.0000
  O   O8        1.0  0.32658591866493225  0.5828798413276672  0.17716130614280703  1.0000
