data_image552
_chemical_formula_structural       OTiO2TiO3CaSiO2
_chemical_formula_sum              "O8 Ti2 Ca1 Si1"
_cell_length_a       5.74809971037334
_cell_length_b       4.8704982452831915
_cell_length_c       4.8426008224487305
_cell_angle_alpha    90.00935303355784
_cell_angle_beta     89.91020600204828
_cell_angle_gamma    89.87552912763594

_space_group_name_H-M_alt    "P 1"
_space_group_IT_number       1

loop_
  _space_group_symop_operation_xyz
  'x, y, z'

loop_
  _atom_site_type_symbol
  _atom_site_label
  _atom_site_symmetry_multiplicity
  _atom_site_fract_x
  _atom_site_fract_y
  _atom_site_fract_z
  _atom_site_occupancy
  O   O1        1.0  0.7219051718711853  0.6748139262199403  0.9105666279792786  1.0000
  Ti  Ti1       1.0  0.6779702305793762  0.4192788004875183  0.2132798731327057  1.0000
  O   O2        1.0  0.252852201461792  0.7910286784172059  0.9593405723571777  1.0000
  O   O3        1.0  0.2539120316505432  0.046856705099344254  0.4684217870235443  1.0000
  Ti  Ti2       1.0  0.5227193236351013  0.9194974899291993  0.7151079773902893  1.0000
  O   O4        1.0  0.4793395698070526  0.6157938241958618  0.4581652879714966  1.0000
  O   O5        1.0  0.47977539896965027  0.22371444106101993  0.9707061052322388  1.0000
  O   O6        1.0  0.7222263813018799  0.164411336183548  0.5197802782058716  1.0000
  Ca  Ca1       1.0  0.10118179023265839  0.4199879169464112  0.7133371233940125  1.0000
  Si  Si1       1.0  0.10091042518615723  0.9192990660667419  0.2140803188085556  1.0000
  O   O7        1.0  0.9482696652412415  0.17397177219390872  0.08630193769931793  1.0000
  O   O8        1.0  0.9485135078430176  0.6660290956497192  0.3423304259777069  1.0000
