data_image131
_chemical_formula_structural       SiTi3OCaO6
_chemical_formula_sum              "Si1 Ti3 O7 Ca1"
_cell_length_a       5.166159008031005
_cell_length_b       5.5699912140269285
_cell_length_c       6.123324871063232
_cell_angle_alpha    101.10976923168822
_cell_angle_beta     106.7650488039323
_cell_angle_gamma    93.62413485675074

_space_group_name_H-M_alt    "P 1"
_space_group_IT_number       1

loop_
  _space_group_symop_operation_xyz
  'x, y, z'

loop_
  _atom_site_type_symbol
  _atom_site_label
  _atom_site_symmetry_multiplicity
  _atom_site_fract_x
  _atom_site_fract_y
  _atom_site_fract_z
  _atom_site_occupancy
  Si  Si1       1.0  0.10834079235792161  0.6604567766189576  0.7905845642089844  1.0000
  Ti  Ti1       1.0  0.6121753454208374  0.2750753164291382  0.8029727935791016  1.0000
  Ti  Ti2       1.0  0.440517246723175  0.7230247855186462  0.5468285083770752  1.0000
  Ti  Ti3       1.0  0.2507639527320862  0.23749947547912598  0.06657947599887847  1.0000
  O   O1        1.0  0.2599563002586365  0.41054585576057434  0.8107584118843079  1.0000
  Ca  Ca1       1.0  0.7546648383140564  0.852934241294861  0.22254915535449982  1.0000
  O   O2        1.0  0.5820611715316772  0.03610339388251305  0.5353137254714966  1.0000
  O   O3        1.0  0.8823324441909789  0.18418510258197784  0.05598733574151989  1.0000
  O   O4        1.0  0.06255488097667695  0.7201974987983705  0.5315918922424316  1.0000
  O   O5        1.0  0.2999679148197174  0.8920167684555054  0.9944987893104553  1.0000
  O   O6        1.0  0.4592736661434173  0.5097829699516296  0.2895086109638214  1.0000
  O   O7        1.0  0.8035338521003723  0.6162951588630676  0.8342778086662292  1.0000
