data_image108
_chemical_formula_structural       CaOTiSi
_chemical_formula_sum              "Ca1 O1 Ti1 Si1"
_cell_length_a       3.145282338368495
_cell_length_b       3.1484849360007234
_cell_length_c       7.262441158294678
_cell_angle_alpha    90.0771153410496
_cell_angle_beta     102.49855137156985
_cell_angle_gamma    119.92162126310375

_space_group_name_H-M_alt    "P 1"
_space_group_IT_number       1

loop_
  _space_group_symop_operation_xyz
  'x, y, z'

loop_
  _atom_site_type_symbol
  _atom_site_label
  _atom_site_symmetry_multiplicity
  _atom_site_fract_x
  _atom_site_fract_y
  _atom_site_fract_z
  _atom_site_occupancy
  Ca  Ca1       1.0  0.29282447695732117  0.14350526034832  0.5978580117225647  1.0000
  O   O1        1.0  0.4789753556251526  0.7360766530036926  0.37789046764373785  1.0000
  Ti  Ti1       1.0  0.6988081932067871  0.34653016924858093  0.20774254202842715  1.0000
  Si  Si1       1.0  0.8534045815467834  0.9233964681625366  0.936744511127472  1.0000
