data_image533
_chemical_formula_structural       CaTiSiO
_chemical_formula_sum              "Ca1 Ti1 Si1 O1"
_cell_length_a       3.1087959742255724
_cell_length_b       3.1125168952477096
_cell_length_c       7.172799587249756
_cell_angle_alpha    90.00566473168679
_cell_angle_beta     90.01401122324788
_cell_angle_gamma    119.97521206047203

_space_group_name_H-M_alt    "P 1"
_space_group_IT_number       1

loop_
  _space_group_symop_operation_xyz
  'x, y, z'

loop_
  _atom_site_type_symbol
  _atom_site_label
  _atom_site_symmetry_multiplicity
  _atom_site_fract_x
  _atom_site_fract_y
  _atom_site_fract_z
  _atom_site_occupancy
  Ca  Ca1       1.0  0.12141413241624835  0.5827034115791321  0.23746694624423983  1.0000
  Ti  Ti1       1.0  0.7891548275947571  0.9163047075271606  0.843931794166565  1.0000
  Si  Si1       1.0  0.4556743800640107  0.2495432496070862  0.5740957856178284  1.0000
  O   O1        1.0  0.4558549523353577  0.2501818537712097  0.017320340499281883  1.0000
