data_image156
_chemical_formula_structural       CaTiSi
_chemical_formula_sum              "Ca1 Ti1 Si1"
_cell_length_a       4.621899497009451
_cell_length_b       4.619881593496445
_cell_length_c       4.619253635406494
_cell_angle_alpha    60.05605690942869
_cell_angle_beta     60.05837859076488
_cell_angle_gamma    60.05875509296842

_space_group_name_H-M_alt    "P 1"
_space_group_IT_number       1

loop_
  _space_group_symop_operation_xyz
  'x, y, z'

loop_
  _atom_site_type_symbol
  _atom_site_label
  _atom_site_symmetry_multiplicity
  _atom_site_fract_x
  _atom_site_fract_y
  _atom_site_fract_z
  _atom_site_occupancy
  Ca  Ca1       1.0  0.41021063923835754  0.5183430314064025  0.32552748918533325  1.0000
  Ti  Ti1       1.0  0.9103662371635437  0.01964148879051208  0.8271735310554504  1.0000
  Si  Si1       1.0  0.16027626395225528  0.2689774930477142  0.07628344744443893  1.0000
