data_image322
_chemical_formula_structural       O3TiCaOSiO2
_chemical_formula_sum              "O6 Ti1 Ca1 Si1"
_cell_length_a       5.0051066702811395
_cell_length_b       5.01033029892538
_cell_length_c       5.035515785217285
_cell_angle_alpha    89.86961418860872
_cell_angle_beta     89.88966080341065
_cell_angle_gamma    119.90626518474544

_space_group_name_H-M_alt    "P 1"
_space_group_IT_number       1

loop_
  _space_group_symop_operation_xyz
  'x, y, z'

loop_
  _atom_site_type_symbol
  _atom_site_label
  _atom_site_symmetry_multiplicity
  _atom_site_fract_x
  _atom_site_fract_y
  _atom_site_fract_z
  _atom_site_occupancy
  O   O1        1.0  0.6009414196014404  0.3878965377807617  0.8529514074325564  1.0000
  O   O2        1.0  0.012326686643064022  0.7993721961975098  0.44736939668655396  1.0000
  O   O3        1.0  0.012562678195536137  0.13494716584682465  0.8535067439079285  1.0000
  Ti  Ti1       1.0  0.9589611291885376  0.440879225730896  0.6500309705734253  1.0000
  Ca  Ca1       1.0  0.626160204410553  0.7739025354385376  0.14973609149456024  1.0000
  O   O4        1.0  0.26571622490882874  0.7995526790618896  0.8528405427932739  1.0000
  Si  Si1       1.0  0.2928090989589691  0.1071617156267166  0.6504389643669128  1.0000
  O   O5        1.0  0.264893114566803  0.3870189189910888  0.44684919714927673  1.0000
  O   O6        1.0  0.600271999835968  0.13454610109329224  0.44671541452407837  1.0000
