data_image78
_chemical_formula_structural       CaTiOSi
_chemical_formula_sum              "Ca1 Ti1 O1 Si1"
_cell_length_a       3.193662978198261
_cell_length_b       3.1969636391736276
_cell_length_c       7.1197052001953125
_cell_angle_alpha    77.06144648188733
_cell_angle_beta     77.09739996247323
_cell_angle_gamma    60.08956033987853

_space_group_name_H-M_alt    "P 1"
_space_group_IT_number       1

loop_
  _space_group_symop_operation_xyz
  'x, y, z'

loop_
  _atom_site_type_symbol
  _atom_site_label
  _atom_site_symmetry_multiplicity
  _atom_site_fract_x
  _atom_site_fract_y
  _atom_site_fract_z
  _atom_site_occupancy
  Ca  Ca1       1.0  0.368236631155014  0.09975972771644594  0.19761137664318085  1.0000
  Ti  Ti1       1.0  0.8319151997566222  0.5636742115020752  0.8057786822319031  1.0000
  O   O1        1.0  0.10747385025024406  0.8388941287994386  0.9788865447044373  1.0000
  Si  Si1       1.0  0.589874267578125  0.32036423683166504  0.532878577709198  1.0000
