data_image426
_chemical_formula_structural       TiSiTiOSiO2CaO6
_chemical_formula_sum              "Ti2 Si2 O9 Ca1"
_cell_length_a       5.457372081296061
_cell_length_b       5.464828316182089
_cell_length_c       8.139490127563477
_cell_angle_alpha    68.11133469476268
_cell_angle_beta     68.2650892910488
_cell_angle_gamma    71.82678675359487

_space_group_name_H-M_alt    "P 1"
_space_group_IT_number       1

loop_
  _space_group_symop_operation_xyz
  'x, y, z'

loop_
  _atom_site_type_symbol
  _atom_site_label
  _atom_site_symmetry_multiplicity
  _atom_site_fract_x
  _atom_site_fract_y
  _atom_site_fract_z
  _atom_site_occupancy
  Ti  Ti1       1.0  0.5357401371002197  0.920511782169342  0.3475980758666992  1.0000
  Si  Si1       1.0  0.22042937576770785  0.6046227812767029  0.8093000054359436  1.0000
  Ti  Ti2       1.0  0.5663740634918213  0.950126886367798  0.8816467523574829  1.0000
  O   O1        1.0  0.35450559854507446  0.7377114295959474  0.8911029696464539  1.0000
  Si  Si2       1.0  0.8808740973472596  0.2666129171848297  0.4202054738998413  1.0000
  O   O2        1.0  0.21203842759132385  0.199325829744339  0.3747527301311493  1.0000
  O   O3        1.0  0.5501905679702759  0.9349648952484132  0.11502693593502045  1.0000
  Ca  Ca1       1.0  0.051315717399120345  0.43677210807800293  0.6138591766357422  1.0000
  O   O4        1.0  0.8886207342147828  0.671266496181488  0.8537799119949341  1.0000
  O   O5        1.0  0.28704893589019775  0.27247029542922974  0.8543469309806824  1.0000
  O   O6        1.0  0.7451323866844177  0.13273820281028748  0.34006792306900024  1.0000
  O   O7        1.0  0.8138608932495116  0.5977640748023988  0.3757585287094116  1.0000
  O   O8        1.0  0.3241292834281922  0.7104400396347046  0.577947735786438  1.0000
  O   O9        1.0  0.7770108580589294  0.16175183653831482  0.6516438722610474  1.0000
