data_image549
_chemical_formula_structural       TiSi2O3CaO5
_chemical_formula_sum              "Ti1 Si2 O8 Ca1"
_cell_length_a       5.141083774097022
_cell_length_b       5.145742262775579
_cell_length_c       6.832182884216309
_cell_angle_alpha    88.34590811564347
_cell_angle_beta     88.43317072286163
_cell_angle_gamma    63.46162986289823

_space_group_name_H-M_alt    "P 1"
_space_group_IT_number       1

loop_
  _space_group_symop_operation_xyz
  'x, y, z'

loop_
  _atom_site_type_symbol
  _atom_site_label
  _atom_site_symmetry_multiplicity
  _atom_site_fract_x
  _atom_site_fract_y
  _atom_site_fract_z
  _atom_site_occupancy
  Ti  Ti1       1.0  0.6831187605857849  0.048465605825185776  0.3132475018501282  1.0000
  Si  Si1       1.0  0.03635044023394584  0.40174803137779236  0.5429237484931946  1.0000
  Si  Si2       1.0  0.33013716340064997  0.6960958242416383  0.0835605189204216  1.0000
  O   O1        1.0  0.9547428488731384  0.3195398449897766  0.7626784443855286  1.0000
  O   O2        1.0  0.3920700252056122  0.2573131322860718  0.5206872820854187  1.0000
  O   O3        1.0  0.8925570249557495  0.7573896050453186  0.5211700201034546  1.0000
  Ca  Ca1       1.0  0.6826388239860535  0.0480351559817791  0.8139349818229675  1.0000
  O   O4        1.0  0.41089102625846863  0.7759161591529846  0.8629562258720398  1.0000
  O   O5        1.0  0.9744833111763  0.8385682702064514  0.10623670369386673  1.0000
  O   O6        1.0  0.4690738618373872  0.8341927528381348  0.24165979027748108  1.0000
  O   O7        1.0  0.8970567584037781  0.2632427513599396  0.3854590356349945  1.0000
  O   O8        1.0  0.4737667739391327  0.339550256729126  0.10562550276517868  1.0000
