data_image227
_chemical_formula_structural       CaO2TiO2SiO2
_chemical_formula_sum              "Ca1 O6 Ti1 Si1"
_cell_length_a       5.004959015714855
_cell_length_b       5.007305159811056
_cell_length_c       5.030356407165527
_cell_angle_alpha    89.96436941001102
_cell_angle_beta     89.94514925543662
_cell_angle_gamma    119.88852142968744

_space_group_name_H-M_alt    "P 1"
_space_group_IT_number       1

loop_
  _space_group_symop_operation_xyz
  'x, y, z'

loop_
  _atom_site_type_symbol
  _atom_site_label
  _atom_site_symmetry_multiplicity
  _atom_site_fract_x
  _atom_site_fract_y
  _atom_site_fract_z
  _atom_site_occupancy
  Ca  Ca1       1.0  0.5560175776481628  0.5758828520774841  0.7867727279663086  1.0000
  O   O1        1.0  0.941942870616913  0.6019792556762695  0.08392088860273361  1.0000
  O   O2        1.0  0.1957031935453415  0.19020035862922668  0.08370854705572128  1.0000
  Ti  Ti1       1.0  0.8901402950286866  0.24349011480808258  0.2868676781654358  1.0000
  O   O3        1.0  0.9424676299095155  0.9365738034248352  0.4901182949543  1.0000
  O   O4        1.0  0.5309534668922424  0.19020189344882965  0.4893298447132111  1.0000
  Si  Si1       1.0  0.22246851027011874  0.9095330238342285  0.28700894117355347  1.0000
  O   O5        1.0  0.1956845074892044  0.6014296412467957  0.490031123161316  1.0000
  O   O6        1.0  0.5308854579925537  0.9370162487030029  0.08415505290031433  1.0000
