data_image265
_chemical_formula_structural       Ca2SiCaOSiTiSiO3SiO8
_chemical_formula_sum              "Ca3 Si4 O12 Ti1"
_cell_length_a       5.324949619839899
_cell_length_b       6.817456993641643
_cell_length_c       6.821272373199463
_cell_angle_alpha    86.5724768694028
_cell_angle_beta     79.75416537672695
_cell_angle_gamma    79.76525691555105

_space_group_name_H-M_alt    "P 1"
_space_group_IT_number       1

loop_
  _space_group_symop_operation_xyz
  'x, y, z'

loop_
  _atom_site_type_symbol
  _atom_site_label
  _atom_site_symmetry_multiplicity
  _atom_site_fract_x
  _atom_site_fract_y
  _atom_site_fract_z
  _atom_site_occupancy
  Ca  Ca1       1.0  0.3519174456596375  0.6308874487876892  0.5786184668540955  1.0000
  Ca  Ca2       1.0  0.3520819842815399  0.2347448617219925  0.9748603701591492  1.0000
  Si  Si1       1.0  0.3700333833694458  0.7062759399414062  0.08050020039081573  1.0000
  Ca  Ca3       1.0  0.8519772887229919  0.020449282601475716  0.18902163207530975  1.0000
  O   O1        1.0  0.775234043598175  0.45400962233543396  0.49285387992858887  1.0000
  Si  Si2       1.0  0.8452854156494141  0.9459286928176881  0.6834971904754639  1.0000
  Ti  Ti1       1.0  0.851895809173584  0.4261726438999176  0.7838115692138672  1.0000
  Si  Si3       1.0  0.3354111909866333  0.13008858263492584  0.5030038356781006  1.0000
  O   O2        1.0  0.23391404747962952  0.30811387300491333  0.6625043153762817  1.0000
  O   O3        1.0  0.5930533409118652  0.9626259803771973  0.565793514251709  1.0000
  O   O4        1.0  0.4392039477825165  0.1969704031944275  0.28185680508613586  1.0000
  Si  Si4       1.0  0.8602502942085266  0.5259626507759094  0.26496776938438416  1.0000
  O   O5        1.0  0.924507200717926  0.3620719611644745  0.0924173891544342  1.0000
  O   O6        1.0  0.11331783235073088  0.642885684967041  0.24860221147537231  1.0000
  O   O7        1.0  0.6072596311569214  0.6999548077583313  0.21639813482761383  1.0000
  O   O8        1.0  0.4708039164543152  0.5468248128890991  0.9021881222724915  1.0000
  O   O9        1.0  0.9287761449813843  0.7174898982048035  0.7559462785720825  1.0000
  O   O10       1.0  0.7806233167648315  0.11883021146059036  0.8471307754516602  1.0000
  O   O11       1.0  0.09873135387897491  0.9928560853004456  0.5104933977127075  1.0000
  O   O12       1.0  0.26501381397247314  0.9270259737968445  0.013027850538492203  1.0000
