data_image154
_chemical_formula_structural       CaOCaO2SiOTiO3CaSiCa
_chemical_formula_sum              "Ca4 O7 Si2 Ti1"
_cell_length_a       6.123599031413134
_cell_length_b       6.7272425632295745
_cell_length_c       6.704092502593994
_cell_angle_alpha    119.50069150918948
_cell_angle_beta     87.90913814744694
_cell_angle_gamma    116.89166574547322

_space_group_name_H-M_alt    "P 1"
_space_group_IT_number       1

loop_
  _space_group_symop_operation_xyz
  'x, y, z'

loop_
  _atom_site_type_symbol
  _atom_site_label
  _atom_site_symmetry_multiplicity
  _atom_site_fract_x
  _atom_site_fract_y
  _atom_site_fract_z
  _atom_site_occupancy
  Ca  Ca1       1.0  0.7489391565322877  0.4996013343334198  0.7599502205848694  1.0000
  O   O1        1.0  0.19760265946388247  0.6974004507064819  0.4075038433074951  1.0000
  Ca  Ca2       1.0  0.54872727394104  0.8364341855049133  0.6582686901092529  1.0000
  O   O2        1.0  0.39177253842353826  0.3862875998020172  0.503324568271637  1.0000
  O   O3        1.0  0.7416991591453552  0.9457974433898926  0.021290834993124008  1.0000
  Si  Si1       1.0  0.10041596740484243  0.886800527572632  0.6087051630020142  1.0000
  O   O4        1.0  0.07140026241540909  0.45300596952438354  0.8928929567337036  1.0000
  Ti  Ti1       1.0  0.10210703313350679  0.2415909469127655  0.6016795635223389  1.0000
  O   O5        1.0  0.21571001410484322  0.9195694327354432  0.8552533388137817  1.0000
  O   O6        1.0  0.7220913767814636  0.08887135982513429  0.46316826343536377  1.0000
  O   O7        1.0  0.5895441770553589  0.5832773447036743  0.1242399662733078  1.0000
  Ca  Ca3       1.0  0.3383691608905792  0.9023313522338867  0.18135976791381836  1.0000
  Si  Si2       1.0  0.8029514551162721  0.8934269547462463  0.22588129341602325  1.0000
  Ca  Ca4       1.0  0.17588801681995392  0.31297385692596436  0.11630172282457352  1.0000
