data_image518
_chemical_formula_structural       OTiSiCaO5Ca
_chemical_formula_sum              "O6 Ti1 Si1 Ca2"
_cell_length_a       5.545465084301183
_cell_length_b       5.416324377982742
_cell_length_c       6.392167568206787
_cell_angle_alpha    56.58147436003261
_cell_angle_beta     88.78698815453966
_cell_angle_gamma    83.30606923065973

_space_group_name_H-M_alt    "P 1"
_space_group_IT_number       1

loop_
  _space_group_symop_operation_xyz
  'x, y, z'

loop_
  _atom_site_type_symbol
  _atom_site_label
  _atom_site_symmetry_multiplicity
  _atom_site_fract_x
  _atom_site_fract_y
  _atom_site_fract_z
  _atom_site_occupancy
  O   O1        1.0  0.07492859661579133  0.675732433795929  0.20453037321567544  1.0000
  Ti  Ti1       1.0  0.26760897040367126  0.5586291551589966  0.04731292650103569  1.0000
  Si  Si1       1.0  0.6035242080688477  0.02472144179046154  0.5875079035758972  1.0000
  Ca  Ca1       1.0  0.052554655820131295  0.4000599980354309  0.6146517395973207  1.0000
  O   O2        1.0  0.1275838315486908  0.3271247446537018  0.9870265126228333  1.0000
  O   O3        1.0  0.35235685110092163  0.9021334648132324  0.7385271787643433  1.0000
  O   O4        1.0  0.5223107933998108  0.3029123842716217  0.28900182247161865  1.0000
  O   O5        1.0  0.7726781368255615  0.7897734642028809  0.550179123878479  1.0000
  O   O6        1.0  0.7341997623443604  0.14812630414962769  0.7309479713439941  1.0000
  Ca  Ca2       1.0  0.8027962446212769  0.06011979654431343  0.1256929188966751  1.0000
