data_image592
_chemical_formula_structural       TiCa3SiCa2TiSiTiSiO
_chemical_formula_sum              "Ti3 Ca5 Si3 O1"
_cell_length_a       4.640176200394695
_cell_length_b       4.569102853551852
_cell_length_c       13.144264221191406
_cell_angle_alpha    89.98866439066968
_cell_angle_beta     79.8415512984318
_cell_angle_gamma    89.95629612313247

_space_group_name_H-M_alt    "P 1"
_space_group_IT_number       1

loop_
  _space_group_symop_operation_xyz
  'x, y, z'

loop_
  _atom_site_type_symbol
  _atom_site_label
  _atom_site_symmetry_multiplicity
  _atom_site_fract_x
  _atom_site_fract_y
  _atom_site_fract_z
  _atom_site_occupancy
  Ti  Ti1       1.0  0.9049197435379028  0.19928951561450958  0.5720983147621155  1.0000
  Ca  Ca1       1.0  0.0023331642150878906  0.699249804019928  0.3799139261245728  1.0000
  Ca  Ca2       1.0  0.7934046387672424  0.6995389461517334  0.7984882593154908  1.0000
  Ca  Ca3       1.0  0.5009496808052063  0.19942541420459747  0.3815194666385651  1.0000
  Si  Si1       1.0  0.7153118848800659  0.19951903820037842  0.9571464061737062  1.0000
  Ca  Ca4       1.0  0.3852747678756714  0.6999174356460571  0.6134418845176697  1.0000
  Ca  Ca5       1.0  0.1246240958571434  0.1995633989572525  0.13715049624443054  1.0000
  Ti  Ti2       1.0  0.2589464485645294  0.19950598478317258  0.8706272840499879  1.0000
  Si  Si2       1.0  0.5783393383026123  0.6994925141334533  0.22855001688003543  1.0000
  Ti  Ti3       1.0  0.6746212840080261  0.6994305849075317  0.03751002624630927  1.0000
  Si  Si3       1.0  0.2171320915222168  0.700003445148468  0.9528872370719911  1.0000
  O   O1        1.0  0.9803667068481445  0.1996612846851349  0.42252048850059515  1.0000
