data_image565
_chemical_formula_structural       CaO2Si
_chemical_formula_sum              "Ca1 O2 Si1"
_cell_length_a       3.176144446279853
_cell_length_b       3.4086923785060543
_cell_length_c       4.823121547698975
_cell_angle_alpha    90.23187375813885
_cell_angle_beta     90.08113148882622
_cell_angle_gamma    90.0698411859433

_space_group_name_H-M_alt    "P 1"
_space_group_IT_number       1

loop_
  _space_group_symop_operation_xyz
  'x, y, z'

loop_
  _atom_site_type_symbol
  _atom_site_label
  _atom_site_symmetry_multiplicity
  _atom_site_fract_x
  _atom_site_fract_y
  _atom_site_fract_z
  _atom_site_occupancy
  Ca  Ca1       1.0  0.062003746628761285  0.4072852730751038  0.5519952178001404  1.0000
  O   O1        1.0  0.5628525018692017  0.40829217433929443  0.17682930827140808  1.0000
  O   O2        1.0  0.5624217391014099  0.9087454080581666  0.7114847898483276  1.0000
  Si  Si1       1.0  0.562239408493042  0.9060328602790834  0.05800129845738411  1.0000
