data_image583
_chemical_formula_structural       CaO2TiOCaO2SiO
_chemical_formula_sum              "Ca2 O6 Ti1 Si1"
_cell_length_a       5.24782372103247
_cell_length_b       5.252912526480981
_cell_length_c       5.281731605529785
_cell_angle_alpha    119.89032478712467
_cell_angle_beta     119.88590108266233
_cell_angle_gamma    90.13476244828297

_space_group_name_H-M_alt    "P 1"
_space_group_IT_number       1

loop_
  _space_group_symop_operation_xyz
  'x, y, z'

loop_
  _atom_site_type_symbol
  _atom_site_label
  _atom_site_symmetry_multiplicity
  _atom_site_fract_x
  _atom_site_fract_y
  _atom_site_fract_z
  _atom_site_occupancy
  Ca  Ca1       1.0  0.7065758109092712  0.23398716747760773  0.10291687399148941  1.0000
  O   O1        1.0  0.6962533593177795  0.7234100699424744  0.08238194137811661  1.0000
  O   O2        1.0  0.7317874431610107  0.6860195994377136  0.6027775406837463  1.0000
  Ti  Ti1       1.0  0.9563133716583251  0.9843000173568727  0.6028225421905518  1.0000
  O   O3        1.0  0.1808403581380844  0.28161364793777466  0.6028375029563904  1.0000
  Ca  Ca2       1.0  0.20662063360214233  0.7339263558387756  0.10258268564939499  1.0000
  O   O4        1.0  0.2544451355934143  0.7597055435180664  0.6025980114936829  1.0000
  O   O5        1.0  0.21730417013168335  0.244674488902092  0.12378185987472534  1.0000
  Si  Si1       1.0  0.4566042125225067  0.4838919341564179  0.6029267311096191  1.0000
  O   O6        1.0  0.6587995886802673  0.20820632576942444  0.6029660105705261  1.0000
