data_image59
_chemical_formula_structural       O2TiSiTiO2CaO4
_chemical_formula_sum              "O8 Ti2 Si1 Ca1"
_cell_length_a       5.770931152777773
_cell_length_b       5.766102661459366
_cell_length_c       5.762925148010254
_cell_angle_alpha    107.33198939080363
_cell_angle_beta     107.14614640138836
_cell_angle_gamma    113.98620503415982

_space_group_name_H-M_alt    "P 1"
_space_group_IT_number       1

loop_
  _space_group_symop_operation_xyz
  'x, y, z'

loop_
  _atom_site_type_symbol
  _atom_site_label
  _atom_site_symmetry_multiplicity
  _atom_site_fract_x
  _atom_site_fract_y
  _atom_site_fract_z
  _atom_site_occupancy
  O   O1        1.0  0.7394024133682251  0.06261344254016876  0.9448209404945374  1.0000
  O   O2        1.0  0.08693252503871918  0.06099463999271392  0.29262828826904297  1.0000
  Ti  Ti1       1.0  0.5899972915649414  0.7382858991622925  0.11852595210075378  1.0000
  Si  Si1       1.0  0.08867476880550385  0.23801007866859433  0.11855679750442505  1.0000
  Ti  Ti2       1.0  0.8395021557807922  0.48901668190956116  0.6190927028656006  1.0000
  O   O3        1.0  0.2323008626699447  0.6645776629447936  0.8334403038024902  1.0000
  O   O4        1.0  0.8012033104896545  0.6650910377502441  0.4028560519218445  1.0000
  Ca  Ca1       1.0  0.3393016457557678  0.9886696338653564  0.6184810996055603  1.0000
  O   O5        1.0  0.2673147916793823  0.2404234409332275  0.9448229074478149  1.0000
  O   O6        1.0  0.664451539516449  0.09705522656440735  0.4033137559890747  1.0000
  O   O7        1.0  0.6629893183708191  0.5269725322723389  0.8330384492874146  1.0000
  O   O8        1.0  0.266510009765625  0.5893496870994568  0.2918907701969147  1.0000
