data_image187
_chemical_formula_structural       Ca2OSiOTiO4
_chemical_formula_sum              "Ca2 O6 Si1 Ti1"
_cell_length_a       4.520425800229823
_cell_length_b       5.106059983307819
_cell_length_c       5.108682632446289
_cell_angle_alpha    89.86458717059648
_cell_angle_beta     90.00232476877159
_cell_angle_gamma    89.89170302461734

_space_group_name_H-M_alt    "P 1"
_space_group_IT_number       1

loop_
  _space_group_symop_operation_xyz
  'x, y, z'

loop_
  _atom_site_type_symbol
  _atom_site_label
  _atom_site_symmetry_multiplicity
  _atom_site_fract_x
  _atom_site_fract_y
  _atom_site_fract_z
  _atom_site_occupancy
  Ca  Ca1       1.0  0.003622889518737793  0.5901133418083191  0.8367787599563599  1.0000
  Ca  Ca2       1.0  0.005863364785909653  0.08996902406215668  0.336738258600235  1.0000
  O   O1        1.0  0.8257110714912415  0.5901362299919128  0.3370744585990906  1.0000
  Si  Si1       1.0  0.4595300555229187  0.5904406309127808  0.3367442488670349  1.0000
  O   O2        1.0  0.35965195298194885  0.8277390003204346  0.5742716789245605  1.0000
  Ti  Ti1       1.0  0.4616023600101471  0.09011870622634886  0.8368039727210999  1.0000
  O   O3        1.0  0.3598632514476776  0.8278595805168152  0.0987425222992897  1.0000
  O   O4        1.0  0.35994842648506165  0.35261502861976624  0.5744612812995911  1.0000
  O   O5        1.0  0.8595986366271973  0.08987754583358765  0.8365273475646973  1.0000
  O   O6        1.0  0.360019713640213  0.3526289165019989  0.09908174723386765  1.0000
