data_image268
_chemical_formula_structural       TiOCaTiO2SiO3SiO2SiO2
_chemical_formula_sum              "Ti2 O10 Ca1 Si3"
_cell_length_a       5.006120862207702
_cell_length_b       6.597310630889745
_cell_length_c       8.135699272155762
_cell_angle_alpha    85.19263578265989
_cell_angle_beta     109.88947174412279
_cell_angle_gamma    95.56149743069572

_space_group_name_H-M_alt    "P 1"
_space_group_IT_number       1

loop_
  _space_group_symop_operation_xyz
  'x, y, z'

loop_
  _atom_site_type_symbol
  _atom_site_label
  _atom_site_symmetry_multiplicity
  _atom_site_fract_x
  _atom_site_fract_y
  _atom_site_fract_z
  _atom_site_occupancy
  Ti  Ti1       1.0  0.36562448740005493  0.1897686868906021  0.8833234906196594  1.0000
  O   O1        1.0  0.678068995475769  0.7130048274993896  0.8049920797348022  1.0000
  Ca  Ca1       1.0  0.17748519778251648  0.6500856876373291  0.754261314868927  1.0000
  Ti  Ti2       1.0  0.014265738427639008  0.17918728291988373  0.44906413555145264  1.0000
  O   O2        1.0  0.15672555565834045  0.3102185130119324  0.6635622382164001  1.0000
  O   O3        1.0  0.631251871585846  0.18420152366161346  0.3164259195327759  1.0000
  Si  Si1       1.0  0.8633401989936829  0.7646849751472473  0.3145432770252228  1.0000
  O   O4        1.0  0.16906091570854187  0.35574185848236084  0.3076647222042084  1.0000
  O   O5        1.0  0.7011317014694214  0.11096271127462387  0.8873800039291382  1.0000
  O   O6        1.0  0.3556267023086548  0.40650519728660583  0.028274141252040877  1.0000
  Si  Si2       1.0  0.8482425212860107  0.8903201818466187  0.9293298125267029  1.0000
  O   O7        1.0  0.03542584180831909  0.8808627724647522  0.4805133044719696  1.0000
  O   O8        1.0  0.9069339036941528  0.8244651556015015  0.13956263661384585  1.0000
  Si  Si3       1.0  0.44457685947418213  0.3799533545970916  0.24390487372875214  1.0000
  O   O9        1.0  0.6483246088027954  0.5842010974884033  0.333633154630661  1.0000
  O   O10       1.0  0.16761086881160736  0.9383857250213623  0.9113269448280334  1.0000
