data_image124
_chemical_formula_structural       TiOSiOSiO2TiO4CaO
_chemical_formula_sum              "Ti2 O9 Si2 Ca1"
_cell_length_a       5.119385760561732
_cell_length_b       7.073427671745336
_cell_length_c       6.681029796600342
_cell_angle_alpha    75.29687851401897
_cell_angle_beta     76.12095505849442
_cell_angle_gamma    87.31754135957365

_space_group_name_H-M_alt    "P 1"
_space_group_IT_number       1

loop_
  _space_group_symop_operation_xyz
  'x, y, z'

loop_
  _atom_site_type_symbol
  _atom_site_label
  _atom_site_symmetry_multiplicity
  _atom_site_fract_x
  _atom_site_fract_y
  _atom_site_fract_z
  _atom_site_occupancy
  Ti  Ti1       1.0  0.9349184632301331  0.0918673127889633  0.6273615956306458  1.0000
  O   O1        1.0  0.27554407715797424  0.16867713630199432  0.6148843169212341  1.0000
  Si  Si1       1.0  0.39182159304618835  0.3376972377300262  0.709822714328766  1.0000
  O   O2        1.0  0.7859850525856018  0.6280723214149475  0.19759085774421695  1.0000
  Si  Si2       1.0  0.11739080399274826  0.057737719267606735  0.11462676525115968  1.0000
  O   O3        1.0  0.290930837392807  0.25623801350593567  0.9772014021873475  1.0000
  O   O4        1.0  0.9601064324378967  0.05593035370111465  0.35918781161308294  1.0000
  Ti  Ti2       1.0  0.6596577763557434  0.8088752031326294  0.034438539296388626  1.0000
  O   O5        1.0  0.8914286494255066  0.029095161706209183  0.9836081266403199  1.0000
  O   O6        1.0  0.3015633225440979  0.5508264303207397  0.6172094941139221  1.0000
  O   O7        1.0  0.7699167728424072  0.8321143984794616  0.7399301528930665  1.0000
  O   O8        1.0  0.3008617162704467  0.8630542755126952  0.14425194263458258  1.0000
  Ca  Ca1       1.0  0.9345765709877014  0.6499043107032776  0.49215146899223333  1.0000
  O   O9        1.0  0.7279129028320312  0.31695932149887085  0.6450777053833009  1.0000
