data_image381
_chemical_formula_structural       CaOSiOTiCaO4
_chemical_formula_sum              "Ca2 O6 Si1 Ti1"
_cell_length_a       5.247453558069332
_cell_length_b       5.249992262894769
_cell_length_c       5.253162384033203
_cell_angle_alpha    60.481681565641765
_cell_angle_beta     60.44595217326956
_cell_angle_gamma    60.47082070660777

_space_group_name_H-M_alt    "P 1"
_space_group_IT_number       1

loop_
  _space_group_symop_operation_xyz
  'x, y, z'

loop_
  _atom_site_type_symbol
  _atom_site_label
  _atom_site_symmetry_multiplicity
  _atom_site_fract_x
  _atom_site_fract_y
  _atom_site_fract_z
  _atom_site_occupancy
  Ca  Ca1       1.0  0.16697415709495544  0.17411154508590698  0.9405871629714966  1.0000
  O   O1        1.0  0.1572463810443878  0.6406967639923096  0.49911773204803467  1.0000
  Si  Si1       1.0  0.9179598093032837  0.9256189465522766  0.6921460032463074  1.0000
  O   O2        1.0  0.6787350177764893  0.21078220009803772  0.88553386926651  1.0000
  Ti  Ti1       1.0  0.41810256242752075  0.42539551854133606  0.1920754760503768  1.0000
  Ca  Ca2       1.0  0.6688438057899476  0.6768922805786133  0.44358533620834345  1.0000
  O   O3        1.0  0.20123654603958133  0.12066761404275894  0.4537420868873596  1.0000
  O   O4        1.0  0.7240298390388489  0.16208890080451965  0.4076465368270874  1.0000
  O   O5        1.0  0.6345915794372559  0.7308372855186462  0.9308696389198303  1.0000
  O   O6        1.0  0.11190326511859894  0.6893209218978882  0.9767686128616333  1.0000
