data_image167
_chemical_formula_structural       OSiCaTiOTiO4
_chemical_formula_sum              "O6 Si1 Ca1 Ti2"
_cell_length_a       5.155703434179329
_cell_length_b       5.152629504238184
_cell_length_c       5.536628246307373
_cell_angle_alpha    62.265363162342766
_cell_angle_beta     62.12155146556285
_cell_angle_gamma    60.150567714263886

_space_group_name_H-M_alt    "P 1"
_space_group_IT_number       1

loop_
  _space_group_symop_operation_xyz
  'x, y, z'

loop_
  _atom_site_type_symbol
  _atom_site_label
  _atom_site_symmetry_multiplicity
  _atom_site_fract_x
  _atom_site_fract_y
  _atom_site_fract_z
  _atom_site_occupancy
  O   O1        1.0  0.6851277947425842  0.31054702401161194  0.7810788154602051  1.0000
  Si  Si1       1.0  0.841906726360321  0.9339765310287474  0.03699272498488426  1.0000
  Ca  Ca1       1.0  0.3178258836269379  0.41091480851173395  0.6077733635902405  1.0000
  Ti  Ti1       1.0  0.04033921658992767  0.1327853798866272  0.43909674882888794  1.0000
  O   O2        1.0  0.7740353941917419  0.17919009923934937  0.23199738562107086  1.0000
  Ti  Ti2       1.0  0.530595064163208  0.6223287582397461  0.9699934124946594  1.0000
  O   O3        1.0  0.46879395842552185  0.8676004409790038  0.23301446437835693  1.0000
  O   O4        1.0  0.21879425644874576  0.9693140983581542  0.7817090749740601  1.0000
  O   O5        1.0  0.08590758591890338  0.5605509281158446  0.23213993012905126  1.0000
  O   O6        1.0  0.8771713376045226  0.7773247957229614  0.7811752557754517  1.0000
