data_image570
_chemical_formula_structural       OCaSi2CaOTiO5
_chemical_formula_sum              "O7 Ca2 Si2 Ti1"
_cell_length_a       5.39146333986936
_cell_length_b       5.392393076597044
_cell_length_c       6.48536491394043
_cell_angle_alpha    90.06783311301032
_cell_angle_beta     90.03513699693289
_cell_angle_gamma    120.05072662904729

_space_group_name_H-M_alt    "P 1"
_space_group_IT_number       1

loop_
  _space_group_symop_operation_xyz
  'x, y, z'

loop_
  _atom_site_type_symbol
  _atom_site_label
  _atom_site_symmetry_multiplicity
  _atom_site_fract_x
  _atom_site_fract_y
  _atom_site_fract_z
  _atom_site_occupancy
  O   O1        1.0  0.4967949688434601  0.5966498255729675  0.13189208507537842  1.0000
  Ca  Ca1       1.0  0.497447669506073  0.5963271260261536  0.45632582902908325  1.0000
  Si  Si1       1.0  0.8300690650939941  0.26199936866760254  0.32261890172958374  1.0000
  Si  Si2       1.0  0.49623048305511475  0.5958529114723204  0.8907647728919983  1.0000
  Ca  Ca2       1.0  0.16286437213420868  0.9305770397186279  0.09615717828273773  1.0000
  O   O2        1.0  0.8200286030769348  0.7586184740066528  0.7927194237709045  1.0000
  Ti  Ti1       1.0  0.16316933929920197  0.9296168684959412  0.6116728186607361  1.0000
  O   O3        1.0  0.5030949115753174  0.0993622988462448  0.40330931544303894  1.0000
  O   O4        1.0  0.9941138029098511  0.09953320026397705  0.4029683768749237  1.0000
  O   O5        1.0  0.9940572381019592  0.5912544131278991  0.39961615204811096  1.0000
  O   O6        1.0  0.3345959782600403  0.2723816931247711  0.7926710247993469  1.0000
  O   O7        1.0  0.33362746238708496  0.7575060129165649  0.7939193844795227  1.0000
