data_image142
_chemical_formula_structural       TiCaOSi
_chemical_formula_sum              "Ti1 Ca1 O1 Si1"
_cell_length_a       3.190586122278321
_cell_length_b       3.190657799132062
_cell_length_c       7.12333345413208
_cell_angle_alpha    77.09683206939451
_cell_angle_beta     77.10492650396768
_cell_angle_gamma    60.10459844679206

_space_group_name_H-M_alt    "P 1"
_space_group_IT_number       1

loop_
  _space_group_symop_operation_xyz
  'x, y, z'

loop_
  _atom_site_type_symbol
  _atom_site_label
  _atom_site_symmetry_multiplicity
  _atom_site_fract_x
  _atom_site_fract_y
  _atom_site_fract_z
  _atom_site_occupancy
  Ti  Ti1       1.0  0.36518424749374384  0.6110840439796448  0.6395761370658875  1.0000
  Ca  Ca1       1.0  0.9014397263526918  0.14682546257972717  0.03200376778841017  1.0000
  O   O1        1.0  0.6411147713661194  0.8862082362174989  0.8143414855003357  1.0000
  Si  Si1       1.0  0.12298582494258878  0.3682157993316651  0.36810800433158875  1.0000
