data_image511
_chemical_formula_structural       Ca3SiO2TiOSiO3CaO6Si
_chemical_formula_sum              "Ca4 Si3 O12 Ti1"
_cell_length_a       6.079228457828737
_cell_length_b       6.088478969733451
_cell_length_c       8.05743408203125
_cell_angle_alpha    92.94410101143987
_cell_angle_beta     95.01616885352514
_cell_angle_gamma    87.54883218127019

_space_group_name_H-M_alt    "P 1"
_space_group_IT_number       1

loop_
  _space_group_symop_operation_xyz
  'x, y, z'

loop_
  _atom_site_type_symbol
  _atom_site_label
  _atom_site_symmetry_multiplicity
  _atom_site_fract_x
  _atom_site_fract_y
  _atom_site_fract_z
  _atom_site_occupancy
  Ca  Ca1       1.0  0.3941079080104828  0.27458882331848145  0.36659544706344604  1.0000
  Ca  Ca2       1.0  0.6421056389808655  0.8346057534217834  0.6654117703437805  1.0000
  Ca  Ca3       1.0  0.048176247626543045  0.5312997102737427  0.09649074077606201  1.0000
  Si  Si1       1.0  0.1692923754453659  0.7269341349601746  0.6043902039527893  1.0000
  O   O1        1.0  0.1506114900112152  0.9400824904441833  0.47670578956604004  1.0000
  O   O2        1.0  0.8385453224182129  0.8428964614868165  0.2299012541770935  1.0000
  Ti  Ti1       1.0  0.579960286617279  0.7531139850616455  0.10340950638055801  1.0000
  O   O3        1.0  0.42264100909233093  0.5470486283302307  0.18143786489963531  1.0000
  Si  Si2       1.0  0.9298205375671387  0.05002206191420556  0.3618314564228058  1.0000
  O   O4        1.0  0.21656405925750732  0.8502469658851624  0.7930214405059814  1.0000
  O   O5        1.0  0.39567992091178894  0.00788970198482275  0.08086035400629044  1.0000
  O   O6        1.0  0.38808473944664  0.573849618434906  0.5649538040161133  1.0000
  Ca  Ca4       1.0  0.7823375463485718  0.34951958060264593  0.7276349067687988  1.0000
  O   O7        1.0  0.5113341212272644  0.14897115528583527  0.7956268787384033  1.0000
  O   O8        1.0  0.019294949248433113  0.26103049516677856  0.2770818769931793  1.0000
  O   O9        1.0  0.9326163530349731  0.6167749762535095  0.5957823395729065  1.0000
  O   O10       1.0  0.708318829536438  0.6453103423118591  0.9252647161483765  1.0000
  O   O11       1.0  0.09355183690786362  0.2634490728378296  0.8946323990821838  1.0000
  O   O12       1.0  0.7320615649223328  0.10751830786466599  0.48565831780433655  1.0000
  Si  Si3       1.0  0.3017905056476593  0.08748976141214371  0.8895965814590454  1.0000
