data_image184
_chemical_formula_structural       OCaOSiO4SiTiO2
_chemical_formula_sum              "O8 Ca1 Si2 Ti1"
_cell_length_a       5.636281697778691
_cell_length_b       5.637861614049494
_cell_length_c       5.65268087387085
_cell_angle_alpha    106.50054325722536
_cell_angle_beta     106.55995234190986
_cell_angle_gamma    115.25970114201753

_space_group_name_H-M_alt    "P 1"
_space_group_IT_number       1

loop_
  _space_group_symop_operation_xyz
  'x, y, z'

loop_
  _atom_site_type_symbol
  _atom_site_label
  _atom_site_symmetry_multiplicity
  _atom_site_fract_x
  _atom_site_fract_y
  _atom_site_fract_z
  _atom_site_occupancy
  O   O1        1.0  0.598709762096405  0.10359278321266174  0.4993944168090821  1.0000
  Ca  Ca1       1.0  0.6614060997962952  0.491722822189331  0.8269978165626527  1.0000
  O   O2        1.0  0.05064157396554946  0.5546115636825562  0.15500532090663913  1.0000
  Si  Si1       1.0  0.4116860628128052  0.742264449596405  0.32653698325157166  1.0000
  O   O3        1.0  0.9979159832000732  0.027884252369403836  0.026095939800143245  1.0000
  O   O4        1.0  0.39693203568458557  0.5547667741775513  0.49962216615676885  1.0000
  O   O5        1.0  0.5241504311561584  0.15528695285320282  0.026381015777587932  1.0000
  O   O6        1.0  0.59935063123703  0.7564922571182251  0.1543377935886383  1.0000
  Si  Si2       1.0  0.16159033775329584  0.9922687411308287  0.8269284963607789  1.0000
  Ti  Ti1       1.0  0.9120235443115234  0.24117137491703033  0.32673731446266174  1.0000
  O   O7        1.0  0.9987576007843018  0.6302571296691895  0.6283428072929382  1.0000
  O   O8        1.0  0.1257873773574829  0.15509632229804993  0.6270593404769897  1.0000
