data_image504
_chemical_formula_structural       Si2CaTiO8
_chemical_formula_sum              "Si2 Ca1 Ti1 O8"
_cell_length_a       5.09073927075168
_cell_length_b       5.092780584490426
_cell_length_c       6.836192607879639
_cell_angle_alpha    90.68352000318355
_cell_angle_beta     90.52609096693949
_cell_angle_gamma    64.19327805251488

_space_group_name_H-M_alt    "P 1"
_space_group_IT_number       1

loop_
  _space_group_symop_operation_xyz
  'x, y, z'

loop_
  _atom_site_type_symbol
  _atom_site_label
  _atom_site_symmetry_multiplicity
  _atom_site_fract_x
  _atom_site_fract_y
  _atom_site_fract_z
  _atom_site_occupancy
  Si  Si1       1.0  0.31473833322525024  0.059803787618875504  0.2531263530254364  1.0000
  Si  Si2       1.0  0.022264670580625517  0.7659608721733093  0.7944917678833008  1.0000
  Ca  Ca1       1.0  0.6686909198760986  0.41235443949699396  0.5235905051231384  1.0000
  Ti  Ti1       1.0  0.6686643362045287  0.4128175377845764  0.023654144257307053  1.0000
  O   O1        1.0  0.8786491751670836  0.12203246355056761  0.8157044053077698  1.0000
  O   O2        1.0  0.4538979232311248  0.19828222692012787  0.09473296254873276  1.0000
  O   O3        1.0  0.9587575793266295  0.20222385227680204  0.23093038797378543  1.0000
  O   O4        1.0  0.37833318114280695  0.6224830150604248  0.8160377740859985  1.0000
  O   O5        1.0  0.9422736167907714  0.6847326755523682  0.5746342539787292  1.0000
  O   O6        1.0  0.45851841568946833  0.7030652761459351  0.23160415887832644  1.0000
  O   O7        1.0  0.39454957842826843  0.1401689648628235  0.47307407855987554  1.0000
  O   O8        1.0  0.8838654160499572  0.6276903748512267  0.952272653579712  1.0000
