data_image383
_chemical_formula_structural       TiCaSiOTiCaOSiOSiO8
_chemical_formula_sum              "Ti2 Ca2 Si3 O11"
_cell_length_a       5.614226643849178
_cell_length_b       6.528970937622418
_cell_length_c       7.640756130218506
_cell_angle_alpha    104.56267679318229
_cell_angle_beta     101.06743625117349
_cell_angle_gamma    108.08824921044827

_space_group_name_H-M_alt    "P 1"
_space_group_IT_number       1

loop_
  _space_group_symop_operation_xyz
  'x, y, z'

loop_
  _atom_site_type_symbol
  _atom_site_label
  _atom_site_symmetry_multiplicity
  _atom_site_fract_x
  _atom_site_fract_y
  _atom_site_fract_z
  _atom_site_occupancy
  Ti  Ti1       1.0  0.9197415113449097  0.9787253737449646  0.7873643040657043  1.0000
  Ca  Ca1       1.0  0.4735852777957916  0.38066545128822327  0.07641521096229553  1.0000
  Si  Si1       1.0  0.14791792631149292  0.5793051719665527  0.3342782258987427  1.0000
  O   O1        1.0  0.3288000226020813  0.4317858517169953  0.36910346150398254  1.0000
  Ti  Ti2       1.0  0.6933865547180176  0.5149612426757812  0.5299979448318481  1.0000
  Ca  Ca2       1.0  0.8972645401954651  0.07458560913801193  0.3789895176887512  1.0000
  O   O2        1.0  0.7613319158554077  0.74733966588974  0.12859995663166046  1.0000
  Si  Si2       1.0  0.993545651435852  0.7555876970291139  0.029589910060167313  1.0000
  O   O3        1.0  0.7592471837997437  0.8274436593055725  0.5340752601623535  1.0000
  Si  Si3       1.0  0.43796730041503906  0.07506866753101349  0.65423184633255  1.0000
  O   O4        1.0  0.23438246548175812  0.1908605992794037  0.7339372634887695  1.0000
  O   O5        1.0  0.8787938356399536  0.6435173153877258  0.798170804977417  1.0000
  O   O6        1.0  0.23780670762062073  0.8221583962440491  0.5029117465019226  1.0000
  O   O7        1.0  0.15660342574119568  0.022167671471834183  0.04153222590684891  1.0000
  O   O8        1.0  0.6029241681098938  0.20395389199256897  0.5340523719787598  1.0000
  O   O9        1.0  0.16409103572368622  0.6158907413482666  0.12667031586170197  1.0000
  O   O10       1.0  0.8492318391799927  0.4208828508853913  0.32297220826148987  1.0000
  O   O11       1.0  0.6404368281364441  0.07912240922451019  0.8436618447303772  1.0000
