data_image434
_chemical_formula_structural       OSiOSiCaTiO6
_chemical_formula_sum              "O8 Si2 Ca1 Ti1"
_cell_length_a       5.641090051793804
_cell_length_b       5.64418707021409
_cell_length_c       5.654160976409912
_cell_angle_alpha    106.50473748064181
_cell_angle_beta     106.55844999802234
_cell_angle_gamma    115.24688700573364

_space_group_name_H-M_alt    "P 1"
_space_group_IT_number       1

loop_
  _space_group_symop_operation_xyz
  'x, y, z'

loop_
  _atom_site_type_symbol
  _atom_site_label
  _atom_site_symmetry_multiplicity
  _atom_site_fract_x
  _atom_site_fract_y
  _atom_site_fract_z
  _atom_site_occupancy
  O   O1        1.0  0.5420455932617188  0.7953853607177734  0.9322447180747985  1.0000
  Si  Si1       1.0  0.7048915028572083  0.758429229259491  0.7331010103225708  1.0000
  O   O2        1.0  0.1425265669822693  0.5230996012687683  0.06074028089642524  1.0000
  Si  Si2       1.0  0.955010950565338  0.5085833072662354  0.23385843634605405  1.0000
  Ca  Ca1       1.0  0.204822838306427  0.2590814232826233  0.7336635589599609  1.0000
  Ti  Ti1       1.0  0.4548549652099609  0.008142141625285149  0.23367750644683835  1.0000
  O   O3        1.0  0.5425207614898682  0.39696887135505676  0.534209668636322  1.0000
  O   O4        1.0  0.9399159550666808  0.32029610872268677  0.40606909990310663  1.0000
  O   O5        1.0  0.6686482429504395  0.9218709468841553  0.5347403883934021  1.0000
  O   O6        1.0  0.14168219268321988  0.869296669960022  0.40662956237792963  1.0000
  O   O7        1.0  0.5940840840339661  0.32183727622032166  0.06091292202472686  1.0000
  O   O8        1.0  0.06664068996906274  0.9214485883712767  0.932448923587799  1.0000
