data_image133
_chemical_formula_structural       SiTiOSiOCa2O2TiO6
_chemical_formula_sum              "Si2 Ti2 O10 Ca2"
_cell_length_a       5.50258096713339
_cell_length_b       5.50727842347253
_cell_length_c       7.112468719482422
_cell_angle_alpha    104.24811101894747
_cell_angle_beta     104.21223405389833
_cell_angle_gamma    105.75623114171202

_space_group_name_H-M_alt    "P 1"
_space_group_IT_number       1

loop_
  _space_group_symop_operation_xyz
  'x, y, z'

loop_
  _atom_site_type_symbol
  _atom_site_label
  _atom_site_symmetry_multiplicity
  _atom_site_fract_x
  _atom_site_fract_y
  _atom_site_fract_z
  _atom_site_occupancy
  Si  Si1       1.0  0.2702071964740753  0.7428916096687317  0.05226048082113267  1.0000
  Ti  Ti1       1.0  0.5895658731460571  0.4238028228282929  0.30224972963333135  1.0000
  O   O1        1.0  0.2765336334705353  0.5360299944877625  0.184776246547699  1.0000
  Si  Si2       1.0  0.9090459346771239  0.10459769517183305  0.5519511699676514  1.0000
  O   O2        1.0  0.5193436741828918  0.4934951066970825  0.5518980026245117  1.0000
  Ca  Ca1       1.0  0.25992467999458313  0.752763867378235  0.5523580312728882  1.0000
  Ca  Ca2       1.0  0.9190853238105773  0.09406792372465134  0.052126199007034274  1.0000
  O   O3        1.0  0.4770918488502502  0.7369629144668579  0.9193660020828248  1.0000
  O   O4        1.0  0.3397391736507416  0.04536924138665199  0.2103437036275864  1.0000
  Ti  Ti2       1.0  0.5897449851036072  0.42404869198799133  0.8021256923675538  1.0000
  O   O5        1.0  0.7019113898277283  0.1105281263589859  0.6845315098762513  1.0000
  O   O6        1.0  0.6587976813316345  0.3537146747112275  0.05204385519027711  1.0000
  O   O7        1.0  0.9023937582969664  0.3115045428276062  0.41906735301017767  1.0000
  O   O8        1.0  0.21152231097221372  0.17391441762447357  0.7105188369750978  1.0000
  O   O9        1.0  0.9674517512321471  0.6731956005096436  0.8934507966041566  1.0000
  O   O10       1.0  0.8393857479095459  0.802301287651062  0.39365062117576605  1.0000
