data_image316
_chemical_formula_structural       SiO3
_chemical_formula_sum              "Si1 O3"
_cell_length_a       2.6932567386016366
_cell_length_b       2.694844159609569
_cell_length_c       8.393977165222168
_cell_angle_alpha    80.83650440334435
_cell_angle_beta     80.83590421700498
_cell_angle_gamma    60.00819678868309

_space_group_name_H-M_alt    "P 1"
_space_group_IT_number       1

loop_
  _space_group_symop_operation_xyz
  'x, y, z'

loop_
  _atom_site_type_symbol
  _atom_site_label
  _atom_site_symmetry_multiplicity
  _atom_site_fract_x
  _atom_site_fract_y
  _atom_site_fract_z
  _atom_site_occupancy
  Si  Si1       1.0  0.08681941777467723  0.6155805587768555  0.5966558456420898  1.0000
  O   O1        1.0  0.5887084603309631  0.116658091545105  0.09856577962636948  1.0000
  O   O2        1.0  0.7897195219993591  0.3172648251056671  0.4919202923774719  1.0000
  O   O3        1.0  0.3833085894584655  0.9112907052040101  0.7078049778938293  1.0000
