data_image569
_chemical_formula_structural       SiCaOTiO2TiO2CaOSiO4
_chemical_formula_sum              "Si2 Ca2 O10 Ti2"
_cell_length_a       5.513827933025633
_cell_length_b       5.512246852339579
_cell_length_c       7.129679203033447
_cell_angle_alpha    104.02197697758302
_cell_angle_beta     103.98122242056229
_cell_angle_gamma    105.67133117024771

_space_group_name_H-M_alt    "P 1"
_space_group_IT_number       1

loop_
  _space_group_symop_operation_xyz
  'x, y, z'

loop_
  _atom_site_type_symbol
  _atom_site_label
  _atom_site_symmetry_multiplicity
  _atom_site_fract_x
  _atom_site_fract_y
  _atom_site_fract_z
  _atom_site_occupancy
  Si  Si1       1.0  0.05607814714312555  0.816271185874939  0.15148404240608218  1.0000
  Ca  Ca1       1.0  0.7044962048530579  0.16787134110927582  0.15091119706630704  1.0000
  O   O1        1.0  0.6258577704429626  0.8757935762405396  0.4928181171417236  1.0000
  Ti  Ti1       1.0  0.37552180886268616  0.4968218505382538  0.9012199640274047  1.0000
  O   O2        1.0  0.2629469931125641  0.8099997639656067  0.018297644332051274  1.0000
  O   O3        1.0  0.48819717764854437  0.18388554453849792  0.7837366461753844  1.0000
  Ti  Ti2       1.0  0.37573006749153137  0.49697062373161316  0.4008833467960357  1.0000
  O   O4        1.0  0.754159688949585  0.7467920184135437  0.9925792813301085  1.0000
  O   O5        1.0  0.12555724382400513  0.11831919848918913  0.3096128404140472  1.0000
  Ca  Ca2       1.0  0.0466965213418007  0.8260119557380676  0.6511573791503905  1.0000
  O   O6        1.0  0.6892738938331604  0.38435256481170654  0.5179916620254517  1.0000
  Si  Si2       1.0  0.6953757405281067  0.17761802673339844  0.6508274674415587  1.0000
  O   O7        1.0  0.30584466457366943  0.5659232139587402  0.6508514285087584  1.0000
  O   O8        1.0  0.06228623911738393  0.6092944741249083  0.2840999066829681  1.0000
  O   O9        1.0  0.9965508580207826  0.2465618997812271  0.8094714879989623  1.0000
  O   O10       1.0  0.44533774256706243  0.42763763666152954  0.15078397095203402  1.0000
