data_image458
_chemical_formula_structural       TiSiCaTiCaSiO2
_chemical_formula_sum              "Ti2 Si2 Ca2 O2"
_cell_length_a       4.07129531235188
_cell_length_b       4.068400909091014
_cell_length_c       8.05838680267334
_cell_angle_alpha    90.00891590122067
_cell_angle_beta     90.00906616525897
_cell_angle_gamma    90.04944624220155

_space_group_name_H-M_alt    "P 1"
_space_group_IT_number       1

loop_
  _space_group_symop_operation_xyz
  'x, y, z'

loop_
  _atom_site_type_symbol
  _atom_site_label
  _atom_site_symmetry_multiplicity
  _atom_site_fract_x
  _atom_site_fract_y
  _atom_site_fract_z
  _atom_site_occupancy
  Ti  Ti1       1.0  0.6081103086471558  0.48970586061477656  0.7265406250953674  1.0000
  Si  Si1       1.0  0.10840358585119247  0.4895069003105163  0.4756753742694855  1.0000
  Ca  Ca1       1.0  0.10851459950208664  0.48949295282363886  0.07510349154472351  1.0000
  Ti  Ti2       1.0  0.10821541398763657  0.989909529685974  0.7260963916778564  1.0000
  Ca  Ca2       1.0  0.6082757711410522  0.9896178245544432  0.37725919485092163  1.0000
  Si  Si2       1.0  0.6086090803146362  0.9897853136062622  0.9768632650375366  1.0000
  O   O1        1.0  0.10834692418575287  0.4897634983062744  0.7893824577331543  1.0000
  O   O2        1.0  0.6081516742706299  0.9900822043418883  0.663027286529541  1.0000
