data_image564
_chemical_formula_structural       TiOCaSiOCaO4
_chemical_formula_sum              "Ti1 O6 Ca2 Si1"
_cell_length_a       4.540208754140227
_cell_length_b       5.089728844405135
_cell_length_c       5.087327003479004
_cell_angle_alpha    89.86185509691867
_cell_angle_beta     90.0688234900686
_cell_angle_gamma    89.89689396450893

_space_group_name_H-M_alt    "P 1"
_space_group_IT_number       1

loop_
  _space_group_symop_operation_xyz
  'x, y, z'

loop_
  _atom_site_type_symbol
  _atom_site_label
  _atom_site_symmetry_multiplicity
  _atom_site_fract_x
  _atom_site_fract_y
  _atom_site_fract_z
  _atom_site_occupancy
  Ti  Ti1       1.0  0.7913638353347778  0.22655330598354337  0.833530068397522  1.0000
  O   O1        1.0  0.8942771553993225  0.9642469882965088  0.09616587311029434  1.0000
  Ca  Ca1       1.0  0.248306930065155  0.725811779499054  0.8338474035263062  1.0000
  Si  Si1       1.0  0.7937060594558716  0.7262971997261046  0.3334969282150269  1.0000
  O   O2        1.0  0.3950543701648712  0.2269442230463028  0.83329176902771  1.0000
  Ca  Ca2       1.0  0.24796704947948453  0.22652460634708405  0.33401167392730713  1.0000
  O   O3        1.0  0.42877376079559326  0.7265120148658752  0.332967758178711  1.0000
  O   O4        1.0  0.8948900699615479  0.48863255977630615  0.5710301995277405  1.0000
  O   O5        1.0  0.8940783143043518  0.9643200635910034  0.571131706237793  1.0000
  O   O6        1.0  0.8940973281860352  0.4891985356807708  0.09560743719339371  1.0000
