data_image543
_chemical_formula_structural       Ca2TiO2SiO4
_chemical_formula_sum              "Ca2 Ti1 O6 Si1"
_cell_length_a       5.264117290911587
_cell_length_b       5.2661281235688815
_cell_length_c       5.26519250869751
_cell_angle_alpha    60.399464896441984
_cell_angle_beta     60.0956248338164
_cell_angle_gamma    60.14258908673335

_space_group_name_H-M_alt    "P 1"
_space_group_IT_number       1

loop_
  _space_group_symop_operation_xyz
  'x, y, z'

loop_
  _atom_site_type_symbol
  _atom_site_label
  _atom_site_symmetry_multiplicity
  _atom_site_fract_x
  _atom_site_fract_y
  _atom_site_fract_z
  _atom_site_occupancy
  Ca  Ca1       1.0  0.4818962216377258  0.723495364189148  0.20880421996116638  1.0000
  Ca  Ca2       1.0  0.9797079563140868  0.23280705511569977  0.7035009860992432  1.0000
  Ti  Ti1       1.0  0.7309484481811523  0.9779472351074218  0.4563228487968445  1.0000
  O   O1        1.0  0.9620211124420165  0.26815229654312134  0.22252494096755981  1.0000
  O   O2        1.0  0.9916240572929381  0.7724838852882385  0.14020946621894836  1.0000
  Si  Si1       1.0  0.23048508167266848  0.4779393374919891  0.9564850926399231  1.0000
  O   O3        1.0  0.4695355296134948  0.18318527936935425  0.7723120450973511  1.0000
  O   O4        1.0  0.4987801015377044  0.6883094310760498  0.6902087330818177  1.0000
  O   O5        1.0  0.019532242789864568  0.6889662742614745  0.688973069190979  1.0000
  O   O6        1.0  0.44278275966644287  0.26602301001548767  0.22302912175655368  1.0000
