data_image155
_chemical_formula_structural       CaTiCaOSiOTiO
_chemical_formula_sum              "Ca2 Ti2 O3 Si1"
_cell_length_a       3.2517991092276732
_cell_length_b       3.254634869819632
_cell_length_c       12.430501937866211
_cell_angle_alpha    90.00505001445231
_cell_angle_beta     90.00230427806504
_cell_angle_gamma    119.85023126707553

_space_group_name_H-M_alt    "P 1"
_space_group_IT_number       1

loop_
  _space_group_symop_operation_xyz
  'x, y, z'

loop_
  _atom_site_type_symbol
  _atom_site_label
  _atom_site_symmetry_multiplicity
  _atom_site_fract_x
  _atom_site_fract_y
  _atom_site_fract_z
  _atom_site_occupancy
  Ca  Ca1       1.0  0.06644064188003534  0.9008116126060485  0.49800083041191096  1.0000
  Ti  Ti1       1.0  0.7340214848518373  0.23427678644657135  0.2874724268913269  1.0000
  Ca  Ca2       1.0  0.3991598188877105  0.5671364665031432  0.03601321950554848  1.0000
  O   O1        1.0  0.7329913377761842  0.23432894051074982  0.13599224388599396  1.0000
  Si  Si1       1.0  0.0668884441256523  0.9013497233390808  0.8531884551048278  1.0000
  O   O2        1.0  0.3986505866050721  0.5664945840835571  0.3652337193489074  1.0000
  Ti  Ti2       1.0  0.7342968583106996  0.23434291779994965  0.7098762989044188  1.0000
  O   O3        1.0  0.39997529983520513  0.5675911903381348  0.615146815776825  1.0000
