data_image382
_chemical_formula_structural       CaTiSiO2CaO4
_chemical_formula_sum              "Ca2 Ti1 Si1 O6"
_cell_length_a       5.298735562739943
_cell_length_b       5.3001974354195
_cell_length_c       5.299274444580078
_cell_angle_alpha    59.932118844111834
_cell_angle_beta     59.976670156138326
_cell_angle_gamma    59.9230591622971

_space_group_name_H-M_alt    "P 1"
_space_group_IT_number       1

loop_
  _space_group_symop_operation_xyz
  'x, y, z'

loop_
  _atom_site_type_symbol
  _atom_site_label
  _atom_site_symmetry_multiplicity
  _atom_site_fract_x
  _atom_site_fract_y
  _atom_site_fract_z
  _atom_site_occupancy
  Ca  Ca1       1.0  0.5726726055145264  0.674019753932953  0.6317771077156066  1.0000
  Ti  Ti1       1.0  0.8231903910636902  0.9241693615913391  0.8818643689155579  1.0000
  Si  Si1       1.0  0.3230651319026947  0.42418840527534485  0.3816635310649872  1.0000
  O   O1        1.0  0.5620212554931641  0.18533097207546237  0.14233914017677302  1.0000
  O   O2        1.0  0.0841362103819847  0.18522864580154422  0.620506227016449  1.0000
  Ca  Ca2       1.0  0.07287360727787015  0.17380788922309878  0.13212135434150696  1.0000
  O   O3        1.0  0.5619466304779053  0.6632985472679138  0.14250458776950836  1.0000
  O   O4        1.0  0.08400741219520569  0.6632318496704102  0.6206583380699158  1.0000
  O   O5        1.0  0.5618887543678284  0.18547055125236514  0.620538055896759  1.0000
  O   O6        1.0  0.08409198373556137  0.6632781624794006  0.14220686256885529  1.0000
