data_image196
_chemical_formula_structural       CaTiSi2O2SiTiSiO
_chemical_formula_sum              "Ca1 Ti2 Si4 O3"
_cell_length_a       3.5199794000214495
_cell_length_b       5.372579781095366
_cell_length_c       7.587637901306152
_cell_angle_alpha    100.25068913667411
_cell_angle_beta     89.92793718273708
_cell_angle_gamma    90.05073031798172

_space_group_name_H-M_alt    "P 1"
_space_group_IT_number       1

loop_
  _space_group_symop_operation_xyz
  'x, y, z'

loop_
  _atom_site_type_symbol
  _atom_site_label
  _atom_site_symmetry_multiplicity
  _atom_site_fract_x
  _atom_site_fract_y
  _atom_site_fract_z
  _atom_site_occupancy
  Ca  Ca1       1.0  0.2729073464870453  0.04830985516309738  0.43481275439262396  1.0000
  Ti  Ti1       1.0  0.7728240489959717  0.47108983993530273  0.17899280786514285  1.0000
  Si  Si1       1.0  0.773155927658081  0.2583383023738861  0.8106198310852052  1.0000
  Si  Si2       1.0  0.7720045447349548  0.5825191140174866  0.5645081400871277  1.0000
  O   O1        1.0  0.772936224937439  0.3231271803379059  0.4117023646831513  1.0000
  O   O2        1.0  0.7728214859962463  0.771689772605896  0.4003613889217377  1.0000
  Si  Si3       1.0  0.7730002403259277  0.9088884592056274  0.06349735707044601  1.0000
  Ti  Ti2       1.0  0.27357885241508484  0.622305691242218  0.8809524774551393  1.0000
  Si  Si4       1.0  0.2733108699321747  0.17090623080730438  0.0030317404307425026  1.0000
  O   O3        1.0  0.2718767821788788  0.6379074454307556  0.6206648945808412  1.0000
