data_image560
_chemical_formula_structural       O3CaOSi2O3TiO
_chemical_formula_sum              "O8 Ca1 Si2 Ti1"
_cell_length_a       5.64670796102034
_cell_length_b       5.643325638842579
_cell_length_c       5.650684356689453
_cell_angle_alpha    106.37299160260231
_cell_angle_beta     106.50774927074389
_cell_angle_gamma    115.43212204062512

_space_group_name_H-M_alt    "P 1"
_space_group_IT_number       1

loop_
  _space_group_symop_operation_xyz
  'x, y, z'

loop_
  _atom_site_type_symbol
  _atom_site_label
  _atom_site_symmetry_multiplicity
  _atom_site_fract_x
  _atom_site_fract_y
  _atom_site_fract_z
  _atom_site_occupancy
  O   O1        1.0  0.6116709113121033  0.5084274411201477  0.44569951295852667  1.0000
  O   O2        1.0  0.8834889531135557  0.9080247879028319  0.31827098131179804  1.0000
  O   O3        1.0  0.08698926866054535  0.11068929731845856  0.9726809263229371  1.0000
  Ca  Ca1       1.0  0.14849126338958737  0.8451529741287231  0.6452497243881226  1.0000
  O   O4        1.0  0.537874937057495  0.9085528254508971  0.9732145071029664  1.0000
  Si  Si1       1.0  0.6486413478851318  0.34564152359962463  0.6455678343772888  1.0000
  Si  Si2       1.0  0.899501085281372  0.09572375565767288  0.1458087712526321  1.0000
  O   O5        1.0  0.4867195188999175  0.9844089746475219  0.446715235710144  1.0000
  O   O6        1.0  0.08623875677585602  0.4570606052875519  0.31835249066352844  1.0000
  O   O7        1.0  0.48631986975669855  0.38303446769714355  0.8448345065116883  1.0000
  Ti  Ti1       1.0  0.3992088735103607  0.5955422520637512  0.1454159319400787  1.0000
  O   O8        1.0  0.01080204639583826  0.508852481842041  0.8452628850936891  1.0000
