data_image314
_chemical_formula_structural       CaOSiO
_chemical_formula_sum              "Ca1 O2 Si1"
_cell_length_a       3.4080407777327326
_cell_length_b       3.4241999232782026
_cell_length_c       5.162046432495117
_cell_angle_alpha    89.84517577589537
_cell_angle_beta     90.11149850871841
_cell_angle_gamma    120.19522738786871

_space_group_name_H-M_alt    "P 1"
_space_group_IT_number       1

loop_
  _space_group_symop_operation_xyz
  'x, y, z'

loop_
  _atom_site_type_symbol
  _atom_site_label
  _atom_site_symmetry_multiplicity
  _atom_site_fract_x
  _atom_site_fract_y
  _atom_site_fract_z
  _atom_site_occupancy
  Ca  Ca1       1.0  0.3682522177696228  0.5466538667678833  0.14258107542991638  1.0000
  O   O1        1.0  0.03612265735864639  0.8808314204216003  0.9002965092658997  1.0000
  Si  Si1       1.0  0.033863943070173264  0.8825368881225586  0.5723118782043457  1.0000
  O   O2        1.0  0.7004973888397217  0.2137762606143951  0.47477367520332336  1.0000
