data_image334
_chemical_formula_structural       Ca2Ti2O2Si2O8
_chemical_formula_sum              "Ca2 Ti2 O10 Si2"
_cell_length_a       5.499661406655223
_cell_length_b       5.497262111854894
_cell_length_c       7.12130069732666
_cell_angle_alpha    104.28206457866797
_cell_angle_beta     104.35167671319195
_cell_angle_gamma    105.62120448436747

_space_group_name_H-M_alt    "P 1"
_space_group_IT_number       1

loop_
  _space_group_symop_operation_xyz
  'x, y, z'

loop_
  _atom_site_type_symbol
  _atom_site_label
  _atom_site_symmetry_multiplicity
  _atom_site_fract_x
  _atom_site_fract_y
  _atom_site_fract_z
  _atom_site_occupancy
  Ca  Ca1       1.0  0.33587056398391724  0.34026822447776794  0.7095326781272889  1.0000
  Ca  Ca2       1.0  0.6771695613861084  0.9984143972396852  0.20924752950668343  1.0000
  Ti  Ti1       1.0  0.006282526068389416  0.6692159175872803  0.9591228961944581  1.0000
  Ti  Ti2       1.0  0.0061979228630661964  0.669838011264801  0.4595083296298981  1.0000
  O   O1        1.0  0.693170428276062  0.7822717428207397  0.8425859212875367  1.0000
  O   O2        1.0  0.319268137216568  0.557102620601654  0.07627150416374207  1.0000
  Si  Si1       1.0  0.3254821002483368  0.3504355549812317  0.20899689197540286  1.0000
  Si  Si2       1.0  0.6870617270469666  0.9886999130249023  0.7093029618263246  1.0000
  O   O3        1.0  0.2558148503303528  0.04770655557513237  0.050969950854778304  1.0000
  O   O4        1.0  0.8935247659683229  0.9824815392494202  0.5762349367141724  1.0000
  O   O5        1.0  0.3839329183101654  0.9188546538352967  0.5510345697402954  1.0000
  O   O6        1.0  0.6289034485816956  0.4199150204658508  0.36711505055427557  1.0000
  O   O7        1.0  0.7567093968391418  0.2916542589664459  0.8675923347473146  1.0000
  O   O8        1.0  0.07528644800186157  0.6001074314117432  0.7092537283897401  1.0000
  O   O9        1.0  0.11979870498180391  0.35676810145378113  0.3425234258174897  1.0000
  O   O10       1.0  0.9371996521949769  0.738511860370636  0.20937421917915347  1.0000
