data_image58
_chemical_formula_structural       CaSiTiO2TiO3SiO2
_chemical_formula_sum              "Ca1 Si2 Ti2 O7"
_cell_length_a       5.41208210195413
_cell_length_b       5.414099810476886
_cell_length_c       7.993323802947998
_cell_angle_alpha    70.23049836506077
_cell_angle_beta     70.26681312443047
_cell_angle_gamma    59.81279932407979

_space_group_name_H-M_alt    "P 1"
_space_group_IT_number       1

loop_
  _space_group_symop_operation_xyz
  'x, y, z'

loop_
  _atom_site_type_symbol
  _atom_site_label
  _atom_site_symmetry_multiplicity
  _atom_site_fract_x
  _atom_site_fract_y
  _atom_site_fract_z
  _atom_site_occupancy
  Ca  Ca1       1.0  0.8496277928352356  0.648478627204895  0.5476883053779602  1.0000
  Si  Si1       1.0  0.4203744232654572  0.2195533365011215  0.8329840302467346  1.0000
  Ti  Ti1       1.0  0.26257026195526123  0.06129230931401253  0.3134610652923584  1.0000
  O   O1        1.0  0.43298318982124334  0.962738573551178  0.7485251426696777  1.0000
  O   O2        1.0  0.5748293399810791  0.096108078956604  0.35336974263191223  1.0000
  Ti  Ti2       1.0  0.12474953383207321  0.9246820211410522  0.7188611030578613  1.0000
  O   O3        1.0  0.16211773455142975  0.5512163043022156  0.7495115995407104  1.0000
  O   O4        1.0  0.29473835229873663  0.6764489412307739  0.35249215364456177  1.0000
  O   O5        1.0  0.8760474324226379  0.3734493851661682  0.3539053499698639  1.0000
  Si  Si2       1.0  0.6038285493850708  0.4047383666038513  0.2830260694026947  1.0000
  O   O6        1.0  0.3496277332305908  0.14792059361934662  0.051231883466243744  1.0000
  O   O7        1.0  0.750113606452942  0.23010864853858945  0.7486967444419861  1.0000
