data_image269
_chemical_formula_structural       Ca2TiO2SiO4
_chemical_formula_sum              "Ca2 Ti1 O6 Si1"
_cell_length_a       5.29148433705629
_cell_length_b       5.293075529560323
_cell_length_c       5.293271541595459
_cell_angle_alpha    59.98543223122172
_cell_angle_beta     59.98916353982782
_cell_angle_gamma    59.997857972827376

_space_group_name_H-M_alt    "P 1"
_space_group_IT_number       1

loop_
  _space_group_symop_operation_xyz
  'x, y, z'

loop_
  _atom_site_type_symbol
  _atom_site_label
  _atom_site_symmetry_multiplicity
  _atom_site_fract_x
  _atom_site_fract_y
  _atom_site_fract_z
  _atom_site_occupancy
  Ca  Ca1       1.0  0.8012602925300597  0.6732385754585266  0.6261652708053589  1.0000
  Ca  Ca2       1.0  0.3014916479587555  0.1734110414981842  0.12668108940124512  1.0000
  Ti  Ti1       1.0  0.05133455246686935  0.9235897064208984  0.8767088651657104  1.0000
  O   O1        1.0  0.7902498245239258  0.6623076796531677  0.13769523799419395  1.0000
  O   O2        1.0  0.3121168911457061  0.6620966196060181  0.13765497505664825  1.0000
  Si  Si1       1.0  0.5514156222343445  0.4234168827533722  0.3765384256839752  1.0000
  O   O3        1.0  0.31228846311569214  0.18415974080562592  0.6157128810882568  1.0000
  O   O4        1.0  0.7903087735176086  0.18422532081604004  0.13763481378555298  1.0000
  O   O5        1.0  0.7901231646537781  0.1843678504228592  0.6156893372535706  1.0000
  O   O6        1.0  0.3122631311416626  0.6623114347457886  0.6155456900596619  1.0000
