data_image586
_chemical_formula_structural       CaOTiO2SiO3Si
_chemical_formula_sum              "Ca1 O6 Ti1 Si2"
_cell_length_a       5.3827363274012425
_cell_length_b       5.828158291590877
_cell_length_c       6.456794261932373
_cell_angle_alpha    111.97894258671658
_cell_angle_beta     90.40945867921248
_cell_angle_gamma    117.38730343868706

_space_group_name_H-M_alt    "P 1"
_space_group_IT_number       1

loop_
  _space_group_symop_operation_xyz
  'x, y, z'

loop_
  _atom_site_type_symbol
  _atom_site_label
  _atom_site_symmetry_multiplicity
  _atom_site_fract_x
  _atom_site_fract_y
  _atom_site_fract_z
  _atom_site_occupancy
  Ca  Ca1       1.0  0.6825616955757142  0.7039836049079896  0.7262001037597656  1.0000
  O   O1        1.0  0.6121376752853394  0.06299098581075668  0.9591113328933716  1.0000
  Ti  Ti1       1.0  0.9672951698303223  0.27140000462532043  0.21846798062324524  1.0000
  O   O2        1.0  0.3772662580013276  0.5678460597991944  0.3692901134490967  1.0000
  O   O3        1.0  0.8402177095413208  0.012637009844183924  0.3469783067703247  1.0000
  Si  Si1       1.0  0.6667950749397278  0.6677392721176147  0.262295126914978  1.0000
  O   O4        1.0  0.5831083059310914  0.5053331255912782  0.9788063764572144  1.0000
  O   O5        1.0  0.10984782874584198  0.06678439676761627  0.9530393481254578  1.0000
  O   O6        1.0  0.8532571792602539  0.5652978420257568  0.3682002127170563  1.0000
  Si  Si2       1.0  0.40237128734588623  0.1428859382867813  0.8415911793708801  1.0000
