data_image493
_chemical_formula_structural       Ca2SiCa2OSiTi2O
_chemical_formula_sum              "Ca4 Si2 O2 Ti2"
_cell_length_a       3.977651866213982
_cell_length_b       6.215493264901062
_cell_length_c       8.857444763183594
_cell_angle_alpha    91.72995957243248
_cell_angle_beta     90.04494515117165
_cell_angle_gamma    108.6187367964039

_space_group_name_H-M_alt    "P 1"
_space_group_IT_number       1

loop_
  _space_group_symop_operation_xyz
  'x, y, z'

loop_
  _atom_site_type_symbol
  _atom_site_label
  _atom_site_symmetry_multiplicity
  _atom_site_fract_x
  _atom_site_fract_y
  _atom_site_fract_z
  _atom_site_occupancy
  Ca  Ca1       1.0  0.5082132816314697  0.5766543745994568  0.4355494976043701  1.0000
  Ca  Ca2       1.0  0.19731116294860837  0.9573307633399963  0.21768586337566376  1.0000
  Si  Si1       1.0  0.9238658547401428  0.40986394882202154  0.19605904817581177  1.0000
  Ca  Ca3       1.0  0.09313421696424484  0.7471955418586731  0.8200703859329224  1.0000
  Ca  Ca4       1.0  0.7907769680023193  0.14366415143013  0.541221559047699  1.0000
  O   O1        1.0  0.673173487186432  0.9067227244377137  0.3518726825714112  1.0000
  Si  Si2       1.0  0.3718438744544983  0.30489280819892883  0.7798047661781311  1.0000
  Ti  Ti1       1.0  0.8057857751846313  0.17358830571174622  0.9428365230560303  1.0000
  Ti  Ti2       1.0  0.48017117381095886  0.5224881768226624  0.04330498352646828  1.0000
  O   O2        1.0  0.6402134895324707  0.8424367904663087  0.9773537516593933  1.0000
