data_image433
_chemical_formula_structural       CaOSiO3TiO2SiO2
_chemical_formula_sum              "Ca1 O8 Si2 Ti1"
_cell_length_a       5.642548495796385
_cell_length_b       5.642197617874579
_cell_length_c       5.659294128417969
_cell_angle_alpha    106.59823655654839
_cell_angle_beta     106.62973760399801
_cell_angle_gamma    115.16757271953986

_space_group_name_H-M_alt    "P 1"
_space_group_IT_number       1

loop_
  _space_group_symop_operation_xyz
  'x, y, z'

loop_
  _atom_site_type_symbol
  _atom_site_label
  _atom_site_symmetry_multiplicity
  _atom_site_fract_x
  _atom_site_fract_y
  _atom_site_fract_z
  _atom_site_occupancy
  Ca  Ca1       1.0  0.4995857775211333  0.9987235665321349  0.0002613793476484716  1.0000
  O   O1        1.0  0.8879700899124146  0.061229199171066284  0.3274688124656677  1.0000
  Si  Si1       1.0  0.9997900128364563  0.49891296029090876  0.000282017863355577  1.0000
  O   O2        1.0  0.8363926410675049  0.5347903966903687  0.1997927576303482  1.0000
  O   O3        1.0  0.23601271212100983  0.062126222997903824  0.673723042011261  1.0000
  O   O4        1.0  0.3612120747566223  0.6613744497299194  0.19885531067848206  1.0000
  Ti  Ti1       1.0  0.750449001789093  0.7483457326889038  0.501052975654602  1.0000
  O   O5        1.0  0.43607839941978455  0.26245707273483276  0.32708248496055603  1.0000
  O   O6        1.0  0.43546804785728455  0.6098256707191467  0.6726852059364319  1.0000
  Si  Si2       1.0  0.24936187267303467  0.24859404563903809  0.5003005862236023  1.0000
  O   O7        1.0  0.8366490006446838  0.13701468706130981  0.8010273575782776  1.0000
  O   O8        1.0  0.9631338715553284  0.6626266241073608  0.801002025604248  1.0000
