data_image338
_chemical_formula_structural       CaOCaSiCaSiO2TiOTiO9
_chemical_formula_sum              "Ca3 O13 Si2 Ti2"
_cell_length_a       5.73954413712559
_cell_length_b       7.968491003538032
_cell_length_c       7.812768459320068
_cell_angle_alpha    84.53361775842059
_cell_angle_beta     73.8699705847107
_cell_angle_gamma    74.06866184273348

_space_group_name_H-M_alt    "P 1"
_space_group_IT_number       1

loop_
  _space_group_symop_operation_xyz
  'x, y, z'

loop_
  _atom_site_type_symbol
  _atom_site_label
  _atom_site_symmetry_multiplicity
  _atom_site_fract_x
  _atom_site_fract_y
  _atom_site_fract_z
  _atom_site_occupancy
  Ca  Ca1       1.0  0.9098719954490662  0.26237234473228455  0.5569937229156494  1.0000
  O   O1        1.0  0.3452819287776947  0.014133229851722716  0.0749483108520508  1.0000
  Ca  Ca2       1.0  0.08154013007879261  0.8142507672309874  0.11337918043136598  1.0000
  Si  Si1       1.0  0.8002049922943115  0.5226120948791504  0.9125311374664308  1.0000
  Ca  Ca3       1.0  0.032246220856904984  0.7895691394805908  0.6331213116645813  1.0000
  Si  Si2       1.0  0.38794368505477905  0.06021486222743987  0.26342254877090454  1.0000
  O   O2        1.0  0.25034305453300476  0.8858550190925598  0.7973385453224183  1.0000
  O   O3        1.0  0.9150324463844299  0.3129754960536957  0.9565601348876954  1.0000
  Ti  Ti1       1.0  0.3901816308498383  0.05150408297777175  0.8246089220046998  1.0000
  O   O4        1.0  0.7151810526847839  0.040914855897426605  0.7046969532966614  1.0000
  Ti  Ti2       1.0  0.4145815074443817  0.4627563655376434  0.2808421552181244  1.0000
  O   O5        1.0  0.6431363821029663  0.41966095566749567  0.40055462718009954  1.0000
  O   O6        1.0  0.9564418196678162  0.6480662822723389  0.9514750242233277  1.0000
  O   O7        1.0  0.1575885415077209  0.6402542591094971  0.36873853206634527  1.0000
  O   O8        1.0  0.5174580812454224  0.5566046237945557  0.049434676766395576  1.0000
  O   O9        1.0  0.21938414871692657  0.25529909133911133  0.7407130002975465  1.0000
  O   O10       1.0  0.6889916062355042  0.9903232455253601  0.25720372796058655  1.0000
  O   O11       1.0  0.8096538782119751  0.5426544547080994  0.7078607678413391  1.0000
  O   O12       1.0  0.19369587302207947  0.9880622029304504  0.42729651927948004  1.0000
  O   O13       1.0  0.2814025282859802  0.270500510931015  0.2934201955795288  1.0000
