data_image377
_chemical_formula_structural       SiCaTiO2
_chemical_formula_sum              "Si1 Ca1 Ti1 O2"
_cell_length_a       3.4879544397150632
_cell_length_b       3.4973154165501152
_cell_length_c       6.939730644226074
_cell_angle_alpha    104.46335708162161
_cell_angle_beta     104.399249067669
_cell_angle_gamma    89.98618535688232

_space_group_name_H-M_alt    "P 1"
_space_group_IT_number       1

loop_
  _space_group_symop_operation_xyz
  'x, y, z'

loop_
  _atom_site_type_symbol
  _atom_site_label
  _atom_site_symmetry_multiplicity
  _atom_site_fract_x
  _atom_site_fract_y
  _atom_site_fract_z
  _atom_site_occupancy
  Si  Si1       1.0  0.5079747438430786  0.07061533629894257  0.4131591320037842  1.0000
  Ca  Ca1       1.0  0.17390185594558716  0.734959840774536  0.7441097497940063  1.0000
  Ti  Ti1       1.0  0.855412483215332  0.4168703854084015  0.11233236640691757  1.0000
  O   O1        1.0  0.7871183753013611  0.8489468693733215  0.9738921523094177  1.0000
  O   O2        1.0  0.2870980501174927  0.3482450544834137  0.9735606908798218  1.0000
