data_image538
_chemical_formula_structural       TiOTiSiO4SiO3
_chemical_formula_sum              "Ti2 O8 Si2"
_cell_length_a       5.549961607958374
_cell_length_b       5.55790453142757
_cell_length_c       9.52997875213623
_cell_angle_alpha    74.74363360177894
_cell_angle_beta     74.74717863193344
_cell_angle_gamma    61.19364884129954

_space_group_name_H-M_alt    "P 1"
_space_group_IT_number       1

loop_
  _space_group_symop_operation_xyz
  'x, y, z'

loop_
  _atom_site_type_symbol
  _atom_site_label
  _atom_site_symmetry_multiplicity
  _atom_site_fract_x
  _atom_site_fract_y
  _atom_site_fract_z
  _atom_site_occupancy
  Ti  Ti1       1.0  0.10569702088832855  0.39795950055122375  0.5155924558639526  1.0000
  O   O1        1.0  0.43773460388183594  0.19844938814640045  0.5777563452720642  1.0000
  Ti  Ti2       1.0  0.23553785681724548  0.5281082987785339  0.11838208138942719  1.0000
  Si  Si1       1.0  0.6113544106483458  0.9043811559677124  0.9943522810935974  1.0000
  O   O2        1.0  0.907110869884491  0.2001095414161682  0.5786506533622742  1.0000
  O   O3        1.0  0.9075312614440918  0.7289292812347412  0.5782111883163452  1.0000
  O   O4        1.0  0.9043728113174438  0.727207601070404  0.05523901432752609  1.0000
  O   O5        1.0  0.17081460356712344  0.4635490477085113  0.3165413737297058  1.0000
  Si  Si2       1.0  0.7305746078491211  0.02123628929257393  0.6390515565872192  1.0000
  O   O6        1.0  0.4354702830314636  0.19733354449272153  0.05547277256846428  1.0000
  O   O7        1.0  0.43333926796913147  0.7271847128868103  0.05456127971410754  1.0000
  O   O8        1.0  0.670479714870453  0.9634286761283873  0.8166660070419312  1.0000
