data_image145
_chemical_formula_structural       CaSi3O3CaOCaO2TiO3SiO3
_chemical_formula_sum              "Ca3 Si4 O12 Ti1"
_cell_length_a       5.149771734042878
_cell_length_b       7.31967634024692
_cell_length_c       8.032896995544434
_cell_angle_alpha    75.38535754293542
_cell_angle_beta     88.23100386404298
_cell_angle_gamma    85.52582592584228

_space_group_name_H-M_alt    "P 1"
_space_group_IT_number       1

loop_
  _space_group_symop_operation_xyz
  'x, y, z'

loop_
  _atom_site_type_symbol
  _atom_site_label
  _atom_site_symmetry_multiplicity
  _atom_site_fract_x
  _atom_site_fract_y
  _atom_site_fract_z
  _atom_site_occupancy
  Ca  Ca1       1.0  0.7518196702003479  0.24902811646461487  0.5764528512954712  1.0000
  Si  Si1       1.0  0.7298896908760071  0.07552958279848099  0.241404727101326  1.0000
  Si  Si2       1.0  0.20275332033634186  0.494488924741745  0.6826660633087158  1.0000
  Si  Si3       1.0  0.6892104148864746  0.455590158700943  0.9226330518722534  1.0000
  O   O1        1.0  0.5081691741943359  0.07268936187028885  0.3943363428115845  1.0000
  O   O2        1.0  0.400195837020874  0.522768497467041  0.8353716731071472  1.0000
  O   O3        1.0  0.9127495884895325  0.41764765977859497  0.7772856950759888  1.0000
  Ca  Ca2       1.0  0.11998961865901948  0.8356176614761351  0.9523854851722717  1.0000
  O   O4        1.0  0.6418092846870422  0.26330769062042236  0.08116467297077179  1.0000
  Ca  Ca3       1.0  0.23308968544006348  0.38307398557662964  0.2948063313961029  1.0000
  O   O5        1.0  0.31236356496810913  0.34145161509513855  0.5823638439178467  1.0000
  O   O6        1.0  0.7773838043212891  0.8830193877220154  0.16567663848400116  1.0000
  Ti  Ti1       1.0  0.20074443519115448  0.9444138407707214  0.5092988014221191  1.0000
  O   O7        1.0  0.9944238066673279  0.11133785545825957  0.32517698407173157  1.0000
  O   O8        1.0  0.8107095956802368  0.49811670184135437  0.34529051184654236  1.0000
  O   O9        1.0  0.0270171407610178  0.9984239935874939  0.690972089767456  1.0000
  Si  Si4       1.0  0.6767479777336121  0.6635633111000061  0.19158171117305756  1.0000
  O   O10       1.0  0.3679089844226837  0.669632613658905  0.1714054495096207  1.0000
  O   O11       1.0  0.1629092246294022  0.6979875564575194  0.546427071094513  1.0000
  O   O12       1.0  0.8045140504837036  0.621235191822052  0.0047258492559194565  1.0000
