data_image121
_chemical_formula_structural       CaSiTiSiO7Ca
_chemical_formula_sum              "Ca2 Si2 Ti1 O7"
_cell_length_a       5.590581431919917
_cell_length_b       6.526163979341555
_cell_length_c       6.529128074645996
_cell_angle_alpha    78.23080089337297
_cell_angle_beta     74.79942311435494
_cell_angle_gamma    85.73864104230903

_space_group_name_H-M_alt    "P 1"
_space_group_IT_number       1

loop_
  _space_group_symop_operation_xyz
  'x, y, z'

loop_
  _atom_site_type_symbol
  _atom_site_label
  _atom_site_symmetry_multiplicity
  _atom_site_fract_x
  _atom_site_fract_y
  _atom_site_fract_z
  _atom_site_occupancy
  Ca  Ca1       1.0  0.5754109621047974  0.01624399423599243  0.8606667518615723  1.0000
  Si  Si1       1.0  0.20796406269073486  0.25305530428886414  0.615029513835907  1.0000
  Ti  Ti1       1.0  0.3913182020187378  0.59517902135849  0.6711046099662781  1.0000
  Si  Si2       1.0  0.5707011818885803  0.9759479761123657  0.31779107451438904  1.0000
  O   O1        1.0  0.8082571029663086  0.023534424602985382  0.11731506139039993  1.0000
  O   O2        1.0  0.3009866774082184  0.7501447200775146  0.8683109879493713  1.0000
  O   O3        1.0  0.37387970089912415  0.3216882050037384  0.7998706698417664  1.0000
  O   O4        1.0  0.3414442539215088  0.9442239999771118  0.22339922189712524  1.0000
  O   O5        1.0  0.4866920113563537  0.1441941112279892  0.48592525720596313  1.0000
  O   O6        1.0  0.19737550616264343  0.5149836540222168  0.49926742911338806  1.0000
  O   O7        1.0  0.6539473533630371  0.7481689453125  0.4688611626625061  1.0000
  Ca  Ca2       1.0  0.060971211642026894  0.736977756023407  0.21565629541873932  1.0000
