data_image576
_chemical_formula_structural       SiOCaTiO2CaO2CaSiTiO5
_chemical_formula_sum              "Si2 O10 Ca3 Ti2"
_cell_length_a       5.44475780536385
_cell_length_b       5.676036663207102
_cell_length_c       8.112883567810059
_cell_angle_alpha    77.67601915411916
_cell_angle_beta     86.87470604120203
_cell_angle_gamma    94.25762853938787

_space_group_name_H-M_alt    "P 1"
_space_group_IT_number       1

loop_
  _space_group_symop_operation_xyz
  'x, y, z'

loop_
  _atom_site_type_symbol
  _atom_site_label
  _atom_site_symmetry_multiplicity
  _atom_site_fract_x
  _atom_site_fract_y
  _atom_site_fract_z
  _atom_site_occupancy
  Si  Si1       1.0  0.559866189956665  0.6560879945755005  0.7813002467155457  1.0000
  O   O1        1.0  0.45973852276802063  0.8734255433082581  0.8711529970169067  1.0000
  Ca  Ca1       1.0  0.39367184042930603  0.16463465988636017  0.6356968283653259  1.0000
  Ti  Ti1       1.0  0.05486281961202623  0.9281689524650575  0.31436872482299805  1.0000
  O   O2        1.0  0.046083033084869385  0.10378317534923553  0.4984259009361267  1.0000
  O   O3        1.0  0.8169010281562805  0.5615555644035339  0.8398883938789368  1.0000
  Ca  Ca2       1.0  0.10229066014289856  0.6186040043830872  0.0004475116729736328  1.0000
  O   O4        1.0  0.3666018843650818  0.41170370578765875  0.8337375521659851  1.0000
  O   O5        1.0  0.16763225197792053  0.575503408908844  0.3738114535808563  1.0000
  Ca  Ca3       1.0  0.6475998163223267  0.16037704050540924  0.013490465469658375  1.0000
  Si  Si2       1.0  0.9536407589912415  0.3496386408805848  0.38358110189437866  1.0000
  Ti  Ti2       1.0  0.5503494143486023  0.7339992523193359  0.35836705565452576  1.0000
  O   O6        1.0  0.8245407342910767  0.8102985620498657  0.1752009242773056  1.0000
  O   O7        1.0  0.9520973563194275  0.2737528085708618  0.19642780721187592  1.0000
  O   O8        1.0  0.38326704502105713  0.9975776672363282  0.23440028727054593  1.0000
  O   O9        1.0  0.6800651550292969  0.4023283123970032  0.45000937581062317  1.0000
  O   O10       1.0  0.5422987937927246  0.7900271415710449  0.5777188539505005  1.0000
