data_image323
_chemical_formula_structural       SiTiCaO8Si
_chemical_formula_sum              "Si2 Ti1 Ca1 O8"
_cell_length_a       5.637441112250256
_cell_length_b       5.636033690367398
_cell_length_c       5.641949653625488
_cell_angle_alpha    106.55485715227681
_cell_angle_beta     106.62020163070568
_cell_angle_gamma    115.39418962129449

_space_group_name_H-M_alt    "P 1"
_space_group_IT_number       1

loop_
  _space_group_symop_operation_xyz
  'x, y, z'

loop_
  _atom_site_type_symbol
  _atom_site_label
  _atom_site_symmetry_multiplicity
  _atom_site_fract_x
  _atom_site_fract_y
  _atom_site_fract_z
  _atom_site_occupancy
  Si  Si1       1.0  0.9201393723487854  0.6122684478759766  0.33982411026954645  1.0000
  Ti  Ti1       1.0  0.16911223530769348  0.3627881705760956  0.8402907848358154  1.0000
  Ca  Ca1       1.0  0.4202461242675781  0.11287096142768861  0.34009259939193726  1.0000
  O   O1        1.0  0.08286061137914658  0.576622486114502  0.14125406742095947  1.0000
  O   O2        1.0  0.48214736580848694  0.5009790062904358  0.6683498024940491  1.0000
  O   O3        1.0  0.031309522688388824  0.050630033016204834  0.011502752080559725  1.0000
  O   O4        1.0  0.08279410004615784  0.9742464423179626  0.538055419921875  1.0000
  O   O5        1.0  0.48207756876945496  0.8473411798477173  0.012627147138118744  1.0000
  O   O6        1.0  0.9553169012069702  0.4492778778076172  0.5389977097511292  1.0000
  O   O7        1.0  0.6853692531585693  0.05024229735136032  0.6675519347190857  1.0000
  O   O8        1.0  0.5580880045890808  0.44966733455657965  0.14231012761592865  1.0000
  Si  Si2       1.0  0.6701506972312927  0.8619864583015442  0.8394625782966614  1.0000
