data_image535
_chemical_formula_structural       TiCaO2Si2O4
_chemical_formula_sum              "Ti1 Ca1 O6 Si2"
_cell_length_a       4.907366949730757
_cell_length_b       5.071054056091005
_cell_length_c       5.990365982055664
_cell_angle_alpha    96.32837800270244
_cell_angle_beta     108.28238524725629
_cell_angle_gamma    115.02377251392159

_space_group_name_H-M_alt    "P 1"
_space_group_IT_number       1

loop_
  _space_group_symop_operation_xyz
  'x, y, z'

loop_
  _atom_site_type_symbol
  _atom_site_label
  _atom_site_symmetry_multiplicity
  _atom_site_fract_x
  _atom_site_fract_y
  _atom_site_fract_z
  _atom_site_occupancy
  Ti  Ti1       1.0  0.27710008621215815  0.5092883110046386  0.17681781947612762  1.0000
  Ca  Ca1       1.0  0.24901363253593445  0.9866845011711121  0.6376136541366577  1.0000
  O   O1        1.0  0.43937787413597107  0.2540073692798614  0.3424328565597534  1.0000
  O   O2        1.0  0.7491404414176941  0.06671451032161713  0.013540573418140411  1.0000
  Si  Si1       1.0  0.725042462348938  0.7352796196937561  0.8649976849555969  1.0000
  Si  Si2       1.0  0.7166516780853271  0.18975557386875153  0.2928728461265564  1.0000
  O   O3        1.0  0.7033717036247253  0.9085188508033752  0.40265458822250366  1.0000
  O   O4        1.0  0.06605464965105058  0.7266519069671631  0.9578126668930054  1.0000
  O   O5        1.0  0.4595611095428467  0.4604017734527588  0.931950569152832  1.0000
  O   O6        1.0  0.056076448410749435  0.5076107978820801  0.4034534692764282  1.0000
