data_image394
_chemical_formula_structural       TiOCaOSiTiOSiCaO
_chemical_formula_sum              "Ti2 O4 Ca2 Si2"
_cell_length_a       3.9516633038496547
_cell_length_b       3.9522902757228753
_cell_length_c       11.416815757751465
_cell_angle_alpha    89.97247684330682
_cell_angle_beta     89.99105495656119
_cell_angle_gamma    120.26532790832529

_space_group_name_H-M_alt    "P 1"
_space_group_IT_number       1

loop_
  _space_group_symop_operation_xyz
  'x, y, z'

loop_
  _atom_site_type_symbol
  _atom_site_label
  _atom_site_symmetry_multiplicity
  _atom_site_fract_x
  _atom_site_fract_y
  _atom_site_fract_z
  _atom_site_occupancy
  Ti  Ti1       1.0  0.47325301170349127  0.7085281014442444  0.3990711271762848  1.0000
  O   O1        1.0  0.47380647063255316  0.7080326080322266  0.5590222477912903  1.0000
  Ca  Ca1       1.0  0.80700021982193  0.374736338853836  0.1497085690498352  1.0000
  O   O2        1.0  0.47379752993583685  0.7075119614601135  0.2396422028541565  1.0000
  Si  Si1       1.0  0.1405303180217743  0.0406021811068058  0.4001869559288025  1.0000
  Ti  Ti2       1.0  0.14004017412662506  0.041660290211439126  0.9000455141067505  1.0000
  O   O3        1.0  0.13967865705490112  0.04150776565074921  0.7388057112693787  1.0000
  Si  Si2       1.0  0.47211876511573797  0.7112593054771423  0.8971044421195984  1.0000
  Ca  Ca2       1.0  0.8062056899070741  0.3754299581050872  0.6507335305213928  1.0000
  O   O4        1.0  0.14032727479934692  0.041737399995326996  0.06037401780486107  1.0000
