data_image217
_chemical_formula_structural       OCa2O3TiOSiO
_chemical_formula_sum              "O6 Ca2 Ti1 Si1"
_cell_length_a       5.266490943826424
_cell_length_b       5.267791033398657
_cell_length_c       5.268294334411621
_cell_angle_alpha    60.329807709452375
_cell_angle_beta     60.312750907143965
_cell_angle_gamma    60.30844171269631

_space_group_name_H-M_alt    "P 1"
_space_group_IT_number       1

loop_
  _space_group_symop_operation_xyz
  'x, y, z'

loop_
  _atom_site_type_symbol
  _atom_site_label
  _atom_site_symmetry_multiplicity
  _atom_site_fract_x
  _atom_site_fract_y
  _atom_site_fract_z
  _atom_site_occupancy
  O   O1        1.0  0.03044887445867063  0.6396648287773132  0.29732421040534973  1.0000
  Ca  Ca1       1.0  0.5434116125106812  0.6781349182128906  0.2402084916830063  1.0000
  Ca  Ca2       1.0  0.04124638810753822  0.17570728063583374  0.7372362613677979  1.0000
  O   O2        1.0  0.07805006206035615  0.11835406720638275  0.25091078877449036  1.0000
  O   O3        1.0  0.5062002539634706  0.7343392372131347  0.7261933088302612  1.0000
  O   O4        1.0  0.6006366014480591  0.16376706957817078  0.20205873250961304  1.0000
  Ti  Ti1       1.0  0.29212769865989685  0.42641666531562805  0.9884286522865295  1.0000
  O   O5        1.0  0.5537588596343994  0.21295680105686188  0.6798554062843323  1.0000
  Si  Si1       1.0  0.7919999361038208  0.9266156554222106  0.4887808561325073  1.0000
  O   O6        1.0  0.9837937951087952  0.6890860199928284  0.7748652100563052  1.0000
