data_image468
_chemical_formula_structural       CaSiCaO2TiO3SiO2TiO4
_chemical_formula_sum              "Ca2 Si2 O11 Ti2"
_cell_length_a       5.581046328050945
_cell_length_b       5.522047055578612
_cell_length_c       7.222920894622803
_cell_angle_alpha    102.98055874618082
_cell_angle_beta     106.36174196850905
_cell_angle_gamma    104.9847342459821

_space_group_name_H-M_alt    "P 1"
_space_group_IT_number       1

loop_
  _space_group_symop_operation_xyz
  'x, y, z'

loop_
  _atom_site_type_symbol
  _atom_site_label
  _atom_site_symmetry_multiplicity
  _atom_site_fract_x
  _atom_site_fract_y
  _atom_site_fract_z
  _atom_site_occupancy
  Ca  Ca1       1.0  0.7803918123245239  0.21770936250686646  0.7340013384819031  1.0000
  Si  Si1       1.0  0.43098807334899897  0.5799698829650879  0.7456145882606506  1.0000
  Ca  Ca2       1.0  0.4289937615394592  0.5506216287612915  0.22450567781925201  1.0000
  O   O1        1.0  0.028204582631587958  0.9464823007583617  0.7233415842056274  1.0000
  O   O2        1.0  0.23152042925357816  0.5833282470703125  0.8807063698768616  1.0000
  Ti  Ti1       1.0  0.12732017040252686  0.910775899887085  0.47588205337524414  1.0000
  O   O3        1.0  0.718210756778717  0.4547950327396393  0.4784390330314636  1.0000
  O   O4        1.0  0.423641175031662  0.7880899906158447  0.6155412197113037  1.0000
  O   O5        1.0  0.7999693155288696  0.9855000376701354  0.34680119156837463  1.0000
  Si  Si2       1.0  0.7881819605827332  0.1819162666797638  0.20816014707088468  1.0000
  O   O6        1.0  0.20105795562267303  0.8403543829917908  0.24541614949703217  1.0000
  O   O7        1.0  0.9932115077972411  0.19067180156707764  0.08340758085250854  1.0000
  Ti  Ti2       1.0  0.1040363982319832  0.8849279880523682  0.9649412035942078  1.0000
  O   O8        1.0  0.4877375960350036  0.13850034773349762  0.06878601014614105  1.0000
  O   O9        1.0  0.885721445083618  0.4975277781486511  0.37097299098968506  1.0000
  O   O10       1.0  0.3404099941253662  0.27675944566726685  0.5941438674926758  1.0000
  O   O11       1.0  0.7342654466629028  0.6375370621681212  0.8992214798927307  1.0000
