data_image48
_chemical_formula_structural       OTiCaSiO4TiOCaO4
_chemical_formula_sum              "O10 Ti2 Ca2 Si1"
_cell_length_a       5.579761706724353
_cell_length_b       5.483709478454194
_cell_length_c       7.337261199951172
_cell_angle_alpha    101.9834530019471
_cell_angle_beta     104.52654451787672
_cell_angle_gamma    107.00417409507324

_space_group_name_H-M_alt    "P 1"
_space_group_IT_number       1

loop_
  _space_group_symop_operation_xyz
  'x, y, z'

loop_
  _atom_site_type_symbol
  _atom_site_label
  _atom_site_symmetry_multiplicity
  _atom_site_fract_x
  _atom_site_fract_y
  _atom_site_fract_z
  _atom_site_occupancy
  O   O1        1.0  0.8994423151016235  0.3999966084957123  0.39787656068801885  1.0000
  Ti  Ti1       1.0  0.2706589102745056  0.6972851157188416  0.9817242622375489  1.0000
  Ca  Ca1       1.0  0.6246194243431091  0.355731725692749  0.820693075656891  1.0000
  Si  Si1       1.0  0.607675313949585  0.37243437767028803  0.2545304298400879  1.0000
  O   O2        1.0  0.3424796164035797  0.5849359035491943  0.7554146051406861  1.0000
  O   O3        1.0  0.9749817848205566  0.7682520747184753  0.8904210925102235  1.0000
  O   O4        1.0  0.4028882086277008  0.3662134110927582  0.38075840473175054  1.0000
  O   O5        1.0  0.2589741349220276  0.9837052822113037  0.5964173674583436  1.0000
  Ti  Ti2       1.0  0.2655006945133209  0.6282567977905273  0.50434809923172  1.0000
  O   O6        1.0  0.5784282684326172  0.9721804857254027  0.5982258319854737  1.0000
  Ca  Ca2       1.0  0.950437068939209  0.018972460180521008  0.18529891967773438  1.0000
  O   O7        1.0  0.20705728232860565  0.7321476936340332  0.24325440824031833  1.0000
  O   O8        1.0  0.525446355342865  0.08132964372634888  0.08729200065135957  1.0000
  O   O9        1.0  0.03978715464472771  0.3562539517879486  0.004313011653721318  1.0000
  O   O10       1.0  0.6196129322052002  0.5994272232055664  0.1350879371166229  1.0000
