data_image168
_chemical_formula_structural       TiSiOCaSiO7
_chemical_formula_sum              "Ti1 Si2 O8 Ca1"
_cell_length_a       5.632363747480569
_cell_length_b       5.633641359684729
_cell_length_c       5.63592004776001
_cell_angle_alpha    106.2178064370056
_cell_angle_beta     106.39356827145554
_cell_angle_gamma    115.77838947807292

_space_group_name_H-M_alt    "P 1"
_space_group_IT_number       1

loop_
  _space_group_symop_operation_xyz
  'x, y, z'

loop_
  _atom_site_type_symbol
  _atom_site_label
  _atom_site_symmetry_multiplicity
  _atom_site_fract_x
  _atom_site_fract_y
  _atom_site_fract_z
  _atom_site_occupancy
  Ti  Ti1       1.0  0.7770176529884338  0.28053250908851624  0.3784617483615875  1.0000
  Si  Si1       1.0  0.027150269597768784  0.03159799426794052  0.8788609504699707  1.0000
  O   O1        1.0  0.4663359224796295  0.798040509223938  0.20576295256614688  1.0000
  Ca  Ca1       1.0  0.5274710059165955  0.5317831039428711  0.8786998987197876  1.0000
  Si  Si2       1.0  0.2793242335319519  0.7831288576126099  0.3789842426776886  1.0000
  O   O2        1.0  0.2623407542705536  0.5946342945098877  0.5511779189109802  1.0000
  O   O3        1.0  0.8644555807113647  0.0682634487748146  0.0778750628232956  1.0000
  O   O4        1.0  0.3890253007411957  0.19473144412040713  0.0774369388818741  1.0000
  O   O5        1.0  0.46634164452552795  0.14417502284049988  0.5510252714157104  1.0000
  O   O6        1.0  0.8651806712150574  0.6709242463111877  0.680585265159607  1.0000
  O   O7        1.0  0.9170914888381958  0.5954046845436096  0.20627494156360635  1.0000
  O   O8        1.0  0.991967499256134  0.1952332705259323  0.6795843243598938  1.0000
