data_image110
_chemical_formula_structural       OTiO2TiO3CaOSiO
_chemical_formula_sum              "O8 Ti2 Ca1 Si1"
_cell_length_a       3.7081590631115833
_cell_length_b       3.748416736947355
_cell_length_c       10.351133346557617
_cell_angle_alpha    90.0825385102618
_cell_angle_beta     100.25608526121897
_cell_angle_gamma    90.06289487573322

_space_group_name_H-M_alt    "P 1"
_space_group_IT_number       1

loop_
  _space_group_symop_operation_xyz
  'x, y, z'

loop_
  _atom_site_type_symbol
  _atom_site_label
  _atom_site_symmetry_multiplicity
  _atom_site_fract_x
  _atom_site_fract_y
  _atom_site_fract_z
  _atom_site_occupancy
  O   O1        1.0  0.20603182911872864  0.13151715695858002  0.720503032207489  1.0000
  Ti  Ti1       1.0  0.6733263731002808  0.13172124326229095  0.6545626521110535  1.0000
  O   O2        1.0  0.3016388416290283  0.6313323378562927  0.9069978594779969  1.0000
  O   O3        1.0  0.7880070805549622  0.13043348491191864  0.8818917274475099  1.0000
  Ti  Ti2       1.0  0.4939897656440735  0.13064418733119965  0.29423150420188904  1.0000
  O   O4        1.0  0.5836187601089478  0.13070835173130035  0.4737707376480103  1.0000
  O   O5        1.0  0.37731340527534485  0.13087676465511322  0.06103354319930077  1.0000
  O   O6        1.0  0.677050769329071  0.6312078833580017  0.6641324758529663  1.0000
  Ca  Ca1       1.0  0.8909827470779419  0.6299121975898743  0.08664626628160477  1.0000
  O   O7        1.0  0.9738863706588745  0.13116522133350372  0.2520187497138977  1.0000
  Si  Si1       1.0  0.2948271334171295  0.13094523549079895  0.8944022059440614  1.0000
  O   O8        1.0  0.47601205110549927  0.630908727645874  0.25707072019577026  1.0000
