data_image537
_chemical_formula_structural       TiO2SiO2CaOTiOSiO
_chemical_formula_sum              "Ti2 O7 Si2 Ca1"
_cell_length_a       4.75308063565554
_cell_length_b       6.315378736195768
_cell_length_c       8.19344425201416
_cell_angle_alpha    121.63105249470314
_cell_angle_beta     121.35089082349951
_cell_angle_gamma    87.22233566971265

_space_group_name_H-M_alt    "P 1"
_space_group_IT_number       1

loop_
  _space_group_symop_operation_xyz
  'x, y, z'

loop_
  _atom_site_type_symbol
  _atom_site_label
  _atom_site_symmetry_multiplicity
  _atom_site_fract_x
  _atom_site_fract_y
  _atom_site_fract_z
  _atom_site_occupancy
  Ti  Ti1       1.0  0.47320985794067383  0.20701807737350464  0.21981146931648257  1.0000
  O   O1        1.0  0.5751892328262329  0.4487021863460541  0.5269443988800049  1.0000
  O   O2        1.0  0.18027016520500183  0.6044363975524902  0.27094364166259766  1.0000
  Si  Si1       1.0  0.06918004155159  0.8943408727645874  0.6587030291557312  1.0000
  O   O3        1.0  0.29382964968681335  0.9121136665344238  0.16699370741844177  1.0000
  O   O4        1.0  0.9250881671905518  0.2575748562812805  0.2997932732105255  1.0000
  Ca  Ca1       1.0  0.08048330992460254  0.47004193067550665  0.8474251627922058  1.0000
  O   O5        1.0  0.6155192852020264  0.6456589102745056  0.9533433318138123  1.0000
  Ti  Ti2       1.0  0.987968921661377  0.8723166584968567  0.2374807447195053  1.0000
  O   O6        1.0  0.19769151508808136  0.14606696367263794  0.9217329025268555  1.0000
  Si  Si2       1.0  0.22808918356895447  0.538719117641449  0.45071062445640564  1.0000
  O   O7        1.0  0.039546217769384384  0.04713127389550209  0.5376728177070618  1.0000
