data_image596
_chemical_formula_structural       Ca2OSiO4TiO2
_chemical_formula_sum              "Ca2 O7 Si1 Ti1"
_cell_length_a       6.0468400661012245
_cell_length_b       5.969316725112107
_cell_length_c       6.192713737487793
_cell_angle_alpha    98.17681808739795
_cell_angle_beta     113.02401043204385
_cell_angle_gamma    92.84558224599859

_space_group_name_H-M_alt    "P 1"
_space_group_IT_number       1

loop_
  _space_group_symop_operation_xyz
  'x, y, z'

loop_
  _atom_site_type_symbol
  _atom_site_label
  _atom_site_symmetry_multiplicity
  _atom_site_fract_x
  _atom_site_fract_y
  _atom_site_fract_z
  _atom_site_occupancy
  Ca  Ca1       1.0  0.8139879703521729  0.8758009076118469  0.04128335416316993  1.0000
  Ca  Ca2       1.0  0.7325334548950195  0.21019180119037628  0.5287171602249146  1.0000
  O   O1        1.0  0.4522143304347992  0.4532478153705597  0.35907790064811707  1.0000
  Si  Si1       1.0  0.44366300106048584  0.736679196357727  0.3907683193683624  1.0000
  O   O2        1.0  0.14384803175926208  0.728329837322235  0.2768876552581787  1.0000
  O   O3        1.0  0.049900785088539124  0.16583842039108276  0.8973089456558228  1.0000
  O   O4        1.0  0.574289083480835  0.8579081892967224  0.24085451662540436  1.0000
  O   O5        1.0  0.8519045114517212  0.47521075606346125  0.8780115842819214  1.0000
  Ti  Ti1       1.0  0.0844094306230545  0.3909395635128021  0.15093718469142914  1.0000
  O   O6        1.0  0.5737849473953247  0.8872931003570556  0.6574550271034241  1.0000
  O   O7        1.0  0.9390689134597778  0.24440371990203855  0.29553863406181335  1.0000
