data_image47
_chemical_formula_structural       SiOCaSiCaOCaO6TiO2SiO
_chemical_formula_sum              "Si3 O11 Ca3 Ti1"
_cell_length_a       5.350584987536213
_cell_length_b       6.3832082744926115
_cell_length_c       7.588626861572266
_cell_angle_alpha    90.64681458439128
_cell_angle_beta     97.08493688783948
_cell_angle_gamma    96.86102302907865

_space_group_name_H-M_alt    "P 1"
_space_group_IT_number       1

loop_
  _space_group_symop_operation_xyz
  'x, y, z'

loop_
  _atom_site_type_symbol
  _atom_site_label
  _atom_site_symmetry_multiplicity
  _atom_site_fract_x
  _atom_site_fract_y
  _atom_site_fract_z
  _atom_site_occupancy
  Si  Si1       1.0  0.25837400555610657  0.28861165046691895  0.05553553625941277  1.0000
  O   O1        1.0  0.06024922430515289  0.04745993763208389  0.4269130229949952  1.0000
  Ca  Ca1       1.0  0.6504741907119751  0.3991666436195374  0.7324297428131105  1.0000
  Si  Si2       1.0  0.8184275031089783  0.9566163420677185  0.8918036222457887  1.0000
  Ca  Ca2       1.0  0.24733613431453705  0.8164372444152833  0.6137677431106567  1.0000
  O   O2        1.0  0.758038341999054  0.31092140078544617  0.4395877420902253  1.0000
  Ca  Ca3       1.0  0.21742679178714752  0.7421627044677734  0.11548256129026414  1.0000
  O   O3        1.0  0.8153606057167053  0.896583378314972  0.10654771327972413  1.0000
  O   O4        1.0  0.01979319378733635  0.18595124781131744  0.9019527435302735  1.0000
  O   O5        1.0  0.406340628862381  0.09810828417539598  0.13738469779491425  1.0000
  O   O6        1.0  0.25537964701652527  0.4534044563770294  0.5773904919624329  1.0000
  O   O7        1.0  0.5083487033843994  0.8136829137802124  0.3878562152385712  1.0000
  O   O8        1.0  0.41568371653556824  0.4844193458557129  0.9718897938728334  1.0000
  Ti  Ti1       1.0  0.6886927485466003  0.02437772788107395  0.3054840862751007  1.0000
  O   O9        1.0  0.9425466060638428  0.7597524523735046  0.813433885574341  1.0000
  O   O10       1.0  0.11634919792413712  0.39180427789688116  0.22012007236480716  1.0000
  Si  Si3       1.0  0.06387601792812347  0.31068193912506104  0.4289492070674897  1.0000
  O   O11       1.0  0.561326801776886  0.01859046518802643  0.7847381830215455  1.0000
