data_image231
_chemical_formula_structural       TiCaSiOTi
_chemical_formula_sum              "Ti2 Ca1 Si1 O1"
_cell_length_a       4.563940888175934
_cell_length_b       4.111631618832806
_cell_length_c       4.117557048797607
_cell_angle_alpha    89.98102823782759
_cell_angle_beta     90.03476133590105
_cell_angle_gamma    90.00839680686963

_space_group_name_H-M_alt    "P 1"
_space_group_IT_number       1

loop_
  _space_group_symop_operation_xyz
  'x, y, z'

loop_
  _atom_site_type_symbol
  _atom_site_label
  _atom_site_symmetry_multiplicity
  _atom_site_fract_x
  _atom_site_fract_y
  _atom_site_fract_z
  _atom_site_occupancy
  Ti  Ti1       1.0  0.6617878675460815  0.6438906192779541  0.6668345332145691  1.0000
  Ca  Ca1       1.0  0.16175150871276855  0.14390067756175995  0.6670864820480347  1.0000
  Si  Si1       1.0  0.16180895268917084  0.6437444686889648  0.1668781340122223  1.0000
  O   O1        1.0  0.6619728803634644  0.14385217428207397  0.6674535274505615  1.0000
  Ti  Ti2       1.0  0.66180819272995  0.143771231174469  0.1666046530008316  1.0000
