data_image445
_chemical_formula_structural       SiOCaO
_chemical_formula_sum              "Si1 O2 Ca1"
_cell_length_a       3.4939154557765653
_cell_length_b       3.4986110570395237
_cell_length_c       6.040210723876953
_cell_angle_alpha    73.2292921365256
_cell_angle_beta     73.23619189595709
_cell_angle_gamma    60.240281828378706

_space_group_name_H-M_alt    "P 1"
_space_group_IT_number       1

loop_
  _space_group_symop_operation_xyz
  'x, y, z'

loop_
  _atom_site_type_symbol
  _atom_site_label
  _atom_site_symmetry_multiplicity
  _atom_site_fract_x
  _atom_site_fract_y
  _atom_site_fract_z
  _atom_site_occupancy
  Si  Si1       1.0  0.8496633768081665  0.5879374146461487  0.8839871883392334  1.0000
  O   O1        1.0  0.7534725069999695  0.4915430247783661  0.1723233014345169  1.0000
  Ca  Ca1       1.0  0.3497842252254486  0.08736645430326462  0.3843856453895569  1.0000
  O   O2        1.0  0.9452778100967407  0.6827384233474733  0.5965642333030701  1.0000
