data_image57
_chemical_formula_structural       CaO2Si
_chemical_formula_sum              "Ca1 O2 Si1"
_cell_length_a       3.5102217459664873
_cell_length_b       3.5155300199415485
_cell_length_c       6.0108962059021
_cell_angle_alpha    73.0724167906902
_cell_angle_beta     73.08725733986834
_cell_angle_gamma    60.39034107743855

_space_group_name_H-M_alt    "P 1"
_space_group_IT_number       1

loop_
  _space_group_symop_operation_xyz
  'x, y, z'

loop_
  _atom_site_type_symbol
  _atom_site_label
  _atom_site_symmetry_multiplicity
  _atom_site_fract_x
  _atom_site_fract_y
  _atom_site_fract_z
  _atom_site_occupancy
  Ca  Ca1       1.0  0.21968100965023046  0.8035453557968139  0.5716481804847717  1.0000
  O   O1        1.0  0.8164774179458617  0.3982629179954529  0.7834292054176331  1.0000
  O   O2        1.0  0.6245847940444946  0.20706531405448914  0.3600297272205353  1.0000
  Si  Si1       1.0  0.7185425162315368  0.3039891123771667  0.0718223825097084  1.0000
