data_image309
_chemical_formula_structural       O2TiSiTiCaO6
_chemical_formula_sum              "O8 Ti2 Si1 Ca1"
_cell_length_a       5.743959677686471
_cell_length_b       5.741569994693875
_cell_length_c       5.7545013427734375
_cell_angle_alpha    106.48992262120747
_cell_angle_beta     106.49066666245274
_cell_angle_gamma    115.58149564150732

_space_group_name_H-M_alt    "P 1"
_space_group_IT_number       1

loop_
  _space_group_symop_operation_xyz
  'x, y, z'

loop_
  _atom_site_type_symbol
  _atom_site_label
  _atom_site_symmetry_multiplicity
  _atom_site_fract_x
  _atom_site_fract_y
  _atom_site_fract_z
  _atom_site_occupancy
  O   O1        1.0  0.6550975441932678  0.3716387152671814  0.839375913143158  1.0000
  O   O2        1.0  0.04391934722661976  0.37186464667320257  0.2279820591211319  1.0000
  Ti  Ti1       1.0  0.44461846351623535  0.46330147981643677  0.5341979265213013  1.0000
  Si  Si1       1.0  0.6915600895881653  0.21423786878585818  0.033491186797618866  1.0000
  Ti  Ti2       1.0  0.9424645900726318  0.9640770554542543  0.5332790017127992  1.0000
  Ca  Ca1       1.0  0.19237557053565987  0.7149218916893006  0.03363015502691269  1.0000
  O   O3        1.0  0.5360050201416016  0.8630456328392029  0.8393266797065735  1.0000
  O   O4        1.0  0.5518938899040222  0.7520611882209779  0.3553483784198761  1.0000
  O   O5        1.0  0.5362652540206909  0.2527260184288025  0.22814053297042847  1.0000
  O   O6        1.0  0.15493619441986084  0.35515499114990234  0.7105674147605896  1.0000
  O   O7        1.0  0.15453524887561806  0.9982830286026002  0.3558213412761688  1.0000
  O   O8        1.0  0.9102570414543152  0.7532653212547303  0.7109256982803345  1.0000
