data_image209
_chemical_formula_structural       CaOTiSiCaO5
_chemical_formula_sum              "Ca2 O6 Ti1 Si1"
_cell_length_a       5.2682410506154955
_cell_length_b       5.271943854361961
_cell_length_c       5.30178165435791
_cell_angle_alpha    119.79824300849765
_cell_angle_beta     119.7974330500773
_cell_angle_gamma    90.01493294231229

_space_group_name_H-M_alt    "P 1"
_space_group_IT_number       1

loop_
  _space_group_symop_operation_xyz
  'x, y, z'

loop_
  _atom_site_type_symbol
  _atom_site_label
  _atom_site_symmetry_multiplicity
  _atom_site_fract_x
  _atom_site_fract_y
  _atom_site_fract_z
  _atom_site_occupancy
  Ca  Ca1       1.0  0.4153513014316559  0.5925297141075134  0.8661288619041443  1.0000
  O   O1        1.0  0.9263617992401123  0.6026319861412048  0.8872411251068115  1.0000
  Ti  Ti1       1.0  0.6651915907859802  0.34225305914878845  0.3660914897918701  1.0000
  Si  Si1       1.0  0.1652630716562271  0.8421874046325684  0.3660915791988373  1.0000
  Ca  Ca2       1.0  0.9154229164123535  0.09203127026557922  0.8662522435188293  1.0000
  O   O2        1.0  0.37163063883781433  0.11295433342456818  0.36590343713760376  1.0000
  O   O3        1.0  0.8934580087661743  0.048084061592817307  0.36536887288093567  1.0000
  O   O4        1.0  0.43711891770362854  0.63572096824646  0.36690375208854675  1.0000
  O   O5        1.0  0.4040214717388153  0.08167368173599243  0.8452704548835754  1.0000
  O   O6        1.0  0.9587389826774597  0.570906937122345  0.366540789604187  1.0000
