data_image192
_chemical_formula_structural       CaO4Si2TiOTiOSiO3
_chemical_formula_sum              "Ca1 O9 Si3 Ti2"
_cell_length_a       5.584790276524942
_cell_length_b       5.486428837035883
_cell_length_c       7.968536853790283
_cell_angle_alpha    107.81068256481876
_cell_angle_beta     113.07200534903812
_cell_angle_gamma    94.0230998322703

_space_group_name_H-M_alt    "P 1"
_space_group_IT_number       1

loop_
  _space_group_symop_operation_xyz
  'x, y, z'

loop_
  _atom_site_type_symbol
  _atom_site_label
  _atom_site_symmetry_multiplicity
  _atom_site_fract_x
  _atom_site_fract_y
  _atom_site_fract_z
  _atom_site_occupancy
  Ca  Ca1       1.0  0.37115710973739624  0.14927412569522858  0.2815689146518707  1.0000
  O   O1        1.0  0.5712544918060303  0.5053131580352783  0.2558702528476715  1.0000
  O   O2        1.0  0.11871220171451569  0.3105356991291046  0.9018294811248779  1.0000
  O   O3        1.0  0.9560012817382812  0.2556571960449219  0.17075906693935394  1.0000
  O   O4        1.0  0.7977851629257202  0.17839141190052032  0.4962486326694489  1.0000
  Si  Si1       1.0  0.9204719662666321  0.05931132659316063  0.6664268374443054  1.0000
  Si  Si2       1.0  0.4358619451522827  0.5396515727043152  0.042335204780101776  1.0000
  Ti  Ti1       1.0  0.4124028980731964  0.7109305262565613  0.7425326704978943  1.0000
  O   O5        1.0  0.3705499470233917  0.8094323873519897  0.011238794773817062  1.0000
  Ti  Ti2       1.0  0.9546146988868713  0.4460113048553467  0.4288603961467743  1.0000
  O   O6        1.0  0.7096168398857117  0.9884122014045715  0.7697299122810364  1.0000
  Si  Si3       1.0  0.8470972180366516  0.27408015727996826  0.9622902870178224  1.0000
  O   O7        1.0  0.6391000747680664  0.47359853982925415  0.9312971234321595  1.0000
  O   O8        1.0  0.31037354469299316  0.3996060192584992  0.5399068593978882  1.0000
  O   O9        1.0  0.06761815398931502  0.8237818479537964  0.6163081526756287  1.0000
