data_image585
_chemical_formula_structural       CaSi
_chemical_formula_sum              "Ca1 Si1"
_cell_length_a       3.237105068667362
_cell_length_b       3.240092441365642
_cell_length_c       4.201265811920166
_cell_angle_alpha    90.04220624609137
_cell_angle_beta     90.02898982866188
_cell_angle_gamma    89.98768084335029

_space_group_name_H-M_alt    "P 1"
_space_group_IT_number       1

loop_
  _space_group_symop_operation_xyz
  'x, y, z'

loop_
  _atom_site_type_symbol
  _atom_site_label
  _atom_site_symmetry_multiplicity
  _atom_site_fract_x
  _atom_site_fract_y
  _atom_site_fract_z
  _atom_site_occupancy
  Ca  Ca1       1.0  0.0870988592505455  0.6565033793449402  0.894433856010437  1.0000
  Si  Si1       1.0  0.5859114527702332  0.15609543025493622  0.39428395032882685  1.0000
